pglib_opf_case588_sdet/pglib_opf_case588_sdet_4regions.m
% -------------------------------------------------------------------------
% Partitioned MATPOWER Case File
% Copyright (c) 2025 Milad Hasanzadeh
% Generated on: 2025-06-21
% This file contains partitioned data for 4 regions


% -------------------- mpc_regionR1 --------------------

mpc_regionR1.version = '2';
mpc_regionR1.baseMVA = 100.0000;
mpc_regionR1.bus = [
%	bus_i       type        Pd          Qd          Gs          Bs          area        Vm          Va          baseKV      zone        Vmax        Vmin        
	 1	 1	 89.79	 28.55	 0	 0	 1	 1	 0	 345	 1	 1.1	 0.9;
	 2	 1	 0	 0	 0	-20	 1	 1	 0	 345	 1	 1.1	 0.9;
	 3	 2	 0	 0	 0	 62.35	 1	 1	 0	 500	 1	 1.1	 0.9;
	 4	 2	 0	 0	 0	 0	 1	 1	 0	 500	 1	 1.1	 0.9;
	 5	 1	 32.47	 85.89	 0	 0	 1	 1	 0	 500	 1	 1.1	 0.9;
	 6	 1	 0	 0	 0	 0	 1	 1	 0	 500	 1	 1.1	 0.9;
	 7	 1	 0	 0	 0	 0	 1	 1	 0	 345	 1	 1.1	 0.9;
	 8	 1	 0	 0	 0	 0	 1	 1	 0	 345	 1	 1.1	 0.9;
	 9	 2	 0	 0	 0	 8.24	 1	 1	 0	 345	 1	 1.1	 0.9;
	 10	 2	 0	 0	 0	 0	 1	 1	 0	 345	 1	 1.1	 0.9;
	 11	 1	 0	 0	 0	 31.41	 1	 1	 0	 345	 1	 1.1	 0.9;
	 12	 1	 0	 0	 0	 83.61	 1	 1	 0	 500	 1	 1.1	 0.9;
	 13	 1	 0	 0	 0	 70	 1	 1	 0	 500	 1	 1.1	 0.9;
	 14	 1	 0	 0	 0	 0	 1	 1	 0	 500	 1	 1.1	 0.9;
	 15	 2	 11	 40	 0	 0	 1	 1	 0	 500	 1	 1.1	 0.9;
	 16	 2	 5	 10	 0	 0	 1	 1	 0	 500	 1	 1.1	 0.9;
	 17	 1	 52.71	 60.23	 0	 0	 1	 1	 0	 345	 1	 1.1	 0.9;
	 18	 1	 6.93	 3.11	 0	 0	 1	 1	 0	 138	 1	 1.1	 0.9;
	 19	 2	 14.65	 1	 0	 0	 1	 1	 0	 138	 1	 1.1	 0.9;
	 20	 2	 8.14	 1.32	 0	 0	 1	 1	 0	 138	 1	 1.1	 0.9;
	 21	 1	 14.17	 4.22	 0	 0	 1	 1	 0	 138	 1	 1.1	 0.9;
	 22	 2	 4.22	 1	 0	 0	 1	 1	 0	 138	 1	 1.1	 0.9;
	 23	 1	 0	 0	 0	 26.67	 1	 1	 0	 138	 1	 1.1	 0.9;
	 24	 1	 0	 0	 0	 48.6	 1	 1	 0	 32	 1	 1.1	 0.9;
	 25	 1	 0	 0	 0	 0	 1	 1	 0	 138	 1	 1.1	 0.9;
	 26	 1	 31.97	 20.83	 0	 0	 1	 1	 0	 138	 1	 1.1	 0.9;
	 27	 1	 5.22	 2.11	 0	 0	 1	 1	 0	 138	 1	 1.1	 0.9;
	 28	 1	 2.61	 1	 0	 0	 1	 1	 0	 138	 1	 1.1	 0.9;
	 29	 2	 0.01	 0.01	 0	 0	 1	 1	 0	 138	 1	 1.1	 0.9;
	 30	 2	 0.01	 0.01	 0	 0	 1	 1	 0	 138	 1	 1.1	 0.9;
	 31	 1	 15.67	 5.22	 0	 0	 1	 1	 0	 138	 1	 1.1	 0.9;
	 32	 1	 16.78	 4.72	 0	 0	 1	 1	 0	 138	 1	 1.1	 0.9;
	 33	 1	 0	 0	 0	 45	 1	 1	 0	 16	 1	 1.1	 0.9;
	 34	 1	 4.22	 0.5	 0	 0	 1	 1	 0	 138	 1	 1.1	 0.9;
	 35	 1	 9.95	 2.11	 0	 0	 1	 1	 0	 138	 1	 1.1	 0.9;
	 36	 1	 10.85	 1	 0	 0	 1	 1	 0	 138	 1	 1.1	 0.9;
	 37	 2	 14.67	 3.11	 0	 0	 1	 1	 0	 138	 1	 1.1	 0.9;
	 38	 1	 7.54	 1	 0	 0	 1	 1	 0	 138	 1	 1.1	 0.9;
	 39	 1	 2.11	 0.5	 0	 0	 1	 1	 0	 138	 1	 1.1	 0.9;
	 40	 1	 2.11	 0.5	 0	 0	 1	 1	 0	 138	 1	 1.1	 0.9;
	 41	 1	 8.74	 3.11	 0	 0	 1	 1	 0	 138	 1	 1.1	 0.9;
	 42	 1	 5.73	 1	 0	 0	 1	 1	 0	 138	 1	 1.1	 0.9;
	 43	 1	 43.38	 6.25	 0	 0	 1	 1	 0	 138	 1	 1.1	 0.9;
	 44	 2	 9.45	 2.61	 0	 0	 1	 1	 0	 138	 1	 1.1	 0.9;
	 45	 2	 42.03	 12.76	 0	 0	 1	 1	 0	 138	 1	 1.1	 0.9;
	 46	 1	 15.67	 2.61	 0	 0	 1	 1	 0	 138	 1	 1.1	 0.9;
	 47	 1	 19.89	 6.83	 0	 0	 1	 1	 0	 138	 1	 1.1	 0.9;
	 48	 1	 8.34	 2.71	 0	 0	 1	 1	 0	 138	 1	 1.1	 0.9;
	 49	 2	 16.78	 6.33	 0	 0	 1	 1	 0	 138	 1	 1.1	 0.9;
	 50	 1	 13.14	 1.26	 0	 0	 1	 1	 0	 138	 1	 1.1	 0.9;
	 51	 1	 5.22	 0.5	 0	 0	 1	 1	 0	 138	 1	 1.1	 0.9;
	 52	 1	 0	 0	 0	-16.07	 1	 1	 0	 138	 1	 1.1	 0.9;
	 53	 1	 68.66	 4.97	 0	-2.01	 1	 1	 0	 138	 1	 1.1	 0.9;
	 54	 2	 9.45	 1	 0	-0.93	 1	 1	 0	 138	 1	 1.1	 0.9;
	 55	 1	 8.34	 3.11	 0	 0	 1	 1	 0	 138	 1	 1.1	 0.9;
	 56	 1	 0	 0	 0	 0	 1	 1	 0	 138	 1	 1.1	 0.9;
	 57	 1	 19.16	 2.01	 0	 0	 1	 1	 0	 138	 1	 1.1	 0.9;
	 58	 2	 30.44	 4.22	 0	 0	 1	 1	 0	 138	 1	 1.1	 0.9;
	 59	 1	 18.89	 4.72	 0	 0	 1	 1	 0	 138	 1	 1.1	 0.9;
	 60	 2	 11.55	 1	 0	 0	 1	 1	 0	 138	 1	 1.1	 0.9;
	 61	 1	 17.78	 4.22	 0	 0	 1	 1	 0	 138	 1	 1.1	 0.9;
	 62	 1	 0	 0	 0	 0	 1	 1	 0	 138	 1	 1.1	 0.9;
	 63	 1	 0	 0	 0	-15.19	 1	 1	 0	 138	 1	 1.1	 0.9;
	 64	 1	 0	 0	 0	-14.11	 1	 1	 0	 138	 1	 1.1	 0.9;
	 65	 1	 0	 0	 0	 0	 1	 1	 0	 500	 1	 1.1	 0.9;
	 66	 1	 0	 0	 0	 30.47	 2	 1	 0	 345	 2	 1.1	 0.9;
	 67	 1	 0	 0	 0	-20	 2	 1	 0	 345	 2	 1.1	 0.9;
	 68	 2	 0	 0	 0	 62.48	 2	 1	 0	 500	 2	 1.1	 0.9;
	 69	 2	 0	 0	 0	 0	 2	 1	 0	 500	 2	 1.1	 0.9;
	 70	 1	 32.47	 85.89	 0	 0	 2	 1	 0	 500	 2	 1.1	 0.9;
	 71	 1	 0	 0	 0	 0	 2	 1	 0	 500	 2	 1.1	 0.9;
	 72	 1	 0	 0	 0	 0	 2	 1	 0	 345	 2	 1.1	 0.9;
	 73	 1	 0	 0	 0	 0	 2	 1	 0	 345	 2	 1.1	 0.9;
	 74	 2	 0	 0	 0	-84.68	 2	 1	 0	 345	 2	 1.1	 0.9;
	 75	 2	 0	 0	 0	 0	 2	 1	 0	 345	 2	 1.1	 0.9;
	 76	 1	 42.84	 29.61	 0	 0	 2	 1	 0	 345	 2	 1.1	 0.9;
	 77	 1	 0	 0	 0	 83.62	 2	 1	 0	 500	 2	 1.1	 0.9;
	 78	 1	 0	 0	 0	 70	 2	 1	 0	 500	 2	 1.1	 0.9;
	 79	 1	 0	 0	 0	 0	 2	 1	 0	 500	 2	 1.1	 0.9;
	 80	 2	 11	 40	 0	 0	 2	 1	 0	 500	 2	 1.1	 0.9;
	 81	 2	 5	 10	 0	 0	 2	 1	 0	 500	 2	 1.1	 0.9;
	 82	 1	 52.71	 60.23	 0	 0	 2	 1	 0	 345	 2	 1.1	 0.9;
	 83	 1	 6.93	 3.11	 0	 0	 2	 1	 0	 138	 2	 1.1	 0.9;
	 84	 2	 14.65	 1	 0	 0	 2	 1	 0	 138	 2	 1.1	 0.9;
	 85	 2	 8.14	 1.32	 0	 0	 2	 1	 0	 138	 2	 1.1	 0.9;
	 86	 1	 14.17	 4.22	 0	 0	 2	 1	 0	 138	 2	 1.1	 0.9;
	 87	 2	 4.22	 1	 0	 0	 2	 1	 0	 138	 2	 1.1	 0.9;
	 88	 1	 61.49	 28.47	 0	 0	 2	 1	 0	 138	 2	 1.1	 0.9;
	 89	 1	 0	 0	 0	 48.6	 2	 1	 0	 32	 2	 1.1	 0.9;
	 90	 1	 0	 0	 0	 0	 2	 1	 0	 138	 2	 1.1	 0.9;
	 91	 1	 3.95	 20.83	 0	 0	 2	 1	 0	 138	 2	 1.1	 0.9;
	 92	 1	 5.22	 2.11	 0	 0	 2	 1	 0	 138	 2	 1.1	 0.9;
	 93	 1	 2.61	 1	 0	 0	 2	 1	 0	 138	 2	 1.1	 0.9;
	 94	 2	 0.01	 0.01	 0	 0	 2	 1	 0	 138	 2	 1.1	 0.9;
	 95	 2	 0.01	 0.01	 0	 0	 2	 1	 0	 138	 2	 1.1	 0.9;
	 96	 1	 15.67	 5.22	 0	 0	 2	 1	 0	 138	 2	 1.1	 0.9;
	 97	 1	 16.78	 4.72	 0	 0	 2	 1	 0	 138	 2	 1.1	 0.9;
	 98	 1	 0	 0	 0	 45	 2	 1	 0	 16	 2	 1.1	 0.9;
	 99	 1	 4.22	 0.5	 0	 0	 2	 1	 0	 138	 2	 1.1	 0.9;
	 100	 1	 9.95	 2.11	 0	 0	 2	 1	 0	 138	 2	 1.1	 0.9;
	 101	 1	 10.85	 1	 0	 0	 2	 1	 0	 138	 2	 1.1	 0.9;
	 102	 2	 14.67	 3.11	 0	 0	 2	 1	 0	 138	 2	 1.1	 0.9;
	 103	 1	 7.54	 1	 0	 0	 2	 1	 0	 138	 2	 1.1	 0.9;
	 104	 1	 2.11	 0.5	 0	 0	 2	 1	 0	 138	 2	 1.1	 0.9;
	 105	 1	 2.11	 0.5	 0	 0	 2	 1	 0	 138	 2	 1.1	 0.9;
	 106	 1	 8.74	 3.11	 0	 0	 2	 1	 0	 138	 2	 1.1	 0.9;
	 107	 1	 5.73	 1	 0	 0	 2	 1	 0	 138	 2	 1.1	 0.9;
	 108	 1	 43.11	 6.25	 0	 0	 2	 1	 0	 138	 2	 1.1	 0.9;
	 109	 2	 9.45	 2.61	 0	 0	 2	 1	 0	 138	 2	 1.1	 0.9;
	 110	 2	 42.03	 12.76	 0	 0	 2	 1	 0	 138	 2	 1.1	 0.9;
	 111	 1	 15.67	 2.61	 0	 0	 2	 1	 0	 138	 2	 1.1	 0.9;
	 112	 1	 19.89	 6.83	 0	 0	 2	 1	 0	 138	 2	 1.1	 0.9;
	 113	 1	 8.34	 2.71	 0	 0	 2	 1	 0	 138	 2	 1.1	 0.9;
	 114	 2	 16.78	 6.33	 0	 0	 2	 1	 0	 138	 2	 1.1	 0.9;
	 115	 1	 13.14	 1.26	 0	 0	 2	 1	 0	 138	 2	 1.1	 0.9;
	 116	 1	 5.22	 0.5	 0	 0	 2	 1	 0	 138	 2	 1.1	 0.9;
	 117	 1	 0	 0	 0	-16.07	 2	 1	 0	 138	 2	 1.1	 0.9;
	 118	 1	 68.66	 4.97	 0	-2.01	 2	 1	 0	 138	 2	 1.1	 0.9;
	 119	 2	 9.45	 1	 0	 1.92	 2	 1	 0	 138	 2	 1.1	 0.9;
	 120	 1	 8.34	 3.11	 0	 0	 2	 1	 0	 138	 2	 1.1	 0.9;
	 121	 1	 0	 0	 0	 0	 2	 1	 0	 138	 2	 1.1	 0.9;
	 122	 1	 19.16	 2.01	 0	 0	 2	 1	 0	 138	 2	 1.1	 0.9;
	 123	 2	 30.44	 4.22	 0	 0	 2	 1	 0	 138	 2	 1.1	 0.9;
	 124	 1	 18.89	 4.72	 0	 0	 2	 1	 0	 138	 2	 1.1	 0.9;
	 125	 2	 11.55	 1	 0	 0	 2	 1	 0	 138	 2	 1.1	 0.9;
	 126	 1	 17.78	 4.22	 0	 0	 2	 1	 0	 138	 2	 1.1	 0.9;
	 127	 1	 0	 0	 0	 0	 2	 1	 0	 138	 2	 1.1	 0.9;
	 128	 1	 0	 0	 0	-15.19	 2	 1	 0	 138	 2	 1.1	 0.9;
	 129	 1	 0	 0	 0	-14.11	 2	 1	 0	 138	 2	 1.1	 0.9;
	 130	 1	 0	 0	 0	 0	 2	 1	 0	 500	 2	 1.1	 0.9;
	 131	 1	 32.23	 53.02	 0	 0	 4	 1	 0	 345	 4	 1.1	 0.9;
	 132	 2	 11.56	 0.01	 0	-8.53	 4	 1	 0	 138	 4	 1.1	 0.9;
	 133	 1	 0	 0	 0	 0	 4	 1	 0	 138	 4	 1.1	 0.9;
	 134	 1	 48.79	 0.5	 0	 0	 4	 1	 0	 138	 4	 1.1	 0.9;
	 135	 1	 16.9	 2.09	 0	 0	 4	 1	 0	 138	 4	 1.1	 0.9;
	 136	 2	 13.06	 3.11	 0	 0	 4	 1	 0	 138	 4	 1.1	 0.9;
	 137	 2	 0.01	 0	 0	 0	 4	 1	 0	 138	 4	 1.1	 0.9;
	 138	 1	 27.71	 2.12	 0	 0	 4	 1	 0	 138	 4	 1.1	 0.9;
	 139	 1	 0	 0	 0	 0	 7	 1	 0	 138	 7	 1.1	 0.9;
	 140	 1	 4.28	 1.58	 0	 0	 7	 1	 0	 138	 7	 1.1	 0.9;
	 141	 1	 5.48	 2.3	 0	 0	 7	 1	 0	 138	 7	 1.1	 0.9;
	 142	 1	 0	 0	 0	 0	 7	 1	 0	 138	 7	 1.1	 0.9;
	 143	 1	 9.76	-13.59	 0	 0	 7	 1	 0	 138	 7	 1.1	 0.9;
	 144	 1	 1.87	 0.8	 0	 0	 7	 1	 0	 138	 7	 1.1	 0.9;
	 145	 1	 3.34	 1.42	 0	 0	 7	 1	 0	 138	 7	 1.1	 0.9;
	 146	 1	 13.52	 5.03	 0	 0	 7	 1	 0	 138	 7	 1.1	 0.9;
	 147	 1	 0	 0	 0	 0	 7	 1	 0	 138	 7	 1.1	 0.9;
	 148	 1	 0	 0	 0	 0	 7	 1	 0	 138	 7	 1.1	 0.9;
	 149	 1	 0	 0	 0	 0	 7	 1	 0	 138	 7	 1.1	 0.9;
	 150	 1	 1	 0.38	 0	 0	 7	 1	 0	 138	 7	 1.1	 0.9;
	 151	 1	 4.49	 3.11	 0	 0	 7	 1	 0	 138	 7	 1.1	 0.9;
	 152	 1	 0	 0	 0	 0	 7	 1	 0	 138	 7	 1.1	 0.9;
	 153	 2	 80	 39	 0	 0	 7	 1	 0	 138	 7	 1.1	 0.9;
	 154	 1	 38.75	-9.25	 0	 0	 7	 1	 0	 138	 7	 1.1	 0.9;
	 155	 1	 0.43	 0.1	 0	 0	 7	 1	 0	 138	 7	 1.1	 0.9;
	 156	 1	 0	 0	 0	 0	 7	 1	 0	 138	 7	 1.1	 0.9;
	 157	 1	 2.78	 1.66	 0	 0	 7	 1	 0	 138	 7	 1.1	 0.9;
	 158	 1	 5.83	 0.67	 0	 0	 7	 1	 0	 138	 7	 1.1	 0.9;
	 159	 1	 1.6	 0.4	 0	 0	 7	 1	 0	 138	 7	 1.1	 0.9;
	 160	 1	 1.07	 0.49	 0	 0	 7	 1	 0	 138	 7	 1.1	 0.9;
	 161	 2	 18.91	 30.21	 0	-0.34	 7	 1	 0	 138	 7	 1.1	 0.9;
	 162	 1	 0	 0	 0	 0	 7	 1	 0	 138	 7	 1.1	 0.9;
	 163	 2	 0	 0	 0	 37.87	 7	 1	 0	 138	 7	 1.1	 0.9;
	 164	 1	 2.94	 1.25	 0	 0	 7	 1	 0	 138	 7	 1.1	 0.9;
	 165	 1	 0	 0	 0	 0	 7	 1	 0	 138	 7	 1.1	 0.9;
	 166	 2	 14.55	 0.55	 0	-5.22	 7	 1	 0	 138	 7	 1.1	 0.9;
	 167	 1	 11.23	 2.66	 0	 0	 7	 1	 0	 138	 7	 1.1	 0.9;
	 168	 1	 0.85	 0.08	 0	 0	 7	 1	 0	 138	 7	 1.1	 0.9;
	 169	 1	 0	 0	 0	 0	 7	 1	 0	 138	 7	 1.1	 0.9;
	 170	 1	 0.66	 0.39	 0	 0	 7	 1	 0	 138	 7	 1.1	 0.9;
	 171	 1	 0.53	 0.31	 0	 0	 7	 1	 0	 138	 7	 1.1	 0.9;
	 172	 1	 2.57	 0.93	 0	 0	 7	 1	 0	 138	 7	 1.1	 0.9;
	 173	 1	 0	 0	 0	 0	 7	 1	 0	 138	 7	 1.1	 0.9;
	 174	 1	 5.35	 0.76	 0	 0	 7	 1	 0	 138	 7	 1.1	 0.9;
	 175	 1	 0	 0	 0	 0	 7	 1	 0	 138	 7	 1.1	 0.9;
	 176	 1	 7.26	 2.71	 0	 0	 7	 1	 0	 138	 7	 1.1	 0.9;
	 177	 1	 0	 0	 0	 0	 7	 1	 0	 138	 7	 1.1	 0.9;
	 178	 1	 5.99	 2.06	 0	 0	 7	 1	 0	 138	 7	 1.1	 0.9;
	 179	 1	 0	 0	 0	 0	 7	 1	 0	 138	 7	 1.1	 0.9;
	 180	 1	 4.54	 1.89	 0	 0	 7	 1	 0	 138	 7	 1.1	 0.9;
	 181	 1	 4.28	 1.79	 0	 0	 7	 1	 0	 138	 7	 1.1	 0.9;
	 182	 1	 0	 0	 0	 0	 7	 1	 0	 138	 7	 1.1	 0.9;
	 183	 1	 0.75	 0.37	 0	 0	 7	 1	 0	 138	 7	 1.1	 0.9;
	 184	 1	 1.28	 0.58	 0	 0	 7	 1	 0	 138	 7	 1.1	 0.9;
	 185	 2	 0	 0	 0	 0	 7	 1	 0	 138	 7	 1.1	 0.9;
	 186	 1	 0	 0.1	 0	 0	 7	 1	 0	 138	 7	 1.1	 0.9;
	 187	 1	 5.31	 1.48	 0	 0	 7	 1	 0	 138	 7	 1.1	 0.9;
	 188	 1	 7.42	 2.01	 0	 0	 7	 1	 0	 138	 7	 1.1	 0.9;
	 189	 1	 2.15	 0.56	 0	 0	 7	 1	 0	 138	 7	 1.1	 0.9;
	 190	 1	 0	 0	 0	 0	 7	 1	 0	 138	 7	 1.1	 0.9;
	 191	 1	 11.82	 4.66	 0	 0	 7	 1	 0	 138	 7	 1.1	 0.9;
	 192	 1	 11.21	 4.84	 0	 0	 7	 1	 0	 138	 7	 1.1	 0.9;
	 193	 1	 4.13	 1.7	 0	 0	 7	 1	 0	 138	 7	 1.1	 0.9;
	 194	 1	 2.57	 1.04	 0	 0	 7	 1	 0	 138	 7	 1.1	 0.9;
	 195	 1	 34.37	-1.69	 0	 0	 7	 1	 0	 138	 7	 1.1	 0.9;
];

mpc_regionR1.gen = [
%	bus         Pg          Qg          Qmax        Qmin        Vg          mBase       status      Pmax        Pmin        Pc1         Pc2         Qc1min      Qc1max      Qc2min      Qc2max      ramp_agc    ramp_10     ramp_30     ramp_q      apf         
	 3	 0	 0	 33.33	-33.33	 1	 100	 0	 137.95	 122.96	 0	 0	 0	 0	 0	 0	 0	 0	 0	 0	 137.955;
	 4	 226.96	-34.935	 279.47	-349.34	 1	 100	 1	 281.74	 172.18	 0	 0	 0	 0	 0	 0	 0	 0	 0	 0	 281.739;
	 9	 0	 0	 33.33	-33.33	 1	 100	 0	 85.25	 70.25	 0	 0	 0	 0	 0	 0	 0	 0	 0	 0	 85.248;
	 10	 159.645	-2.565	 20.51	-25.64	 1	 100	 1	 221.79	 97.5	 0	 0	 0	 0	 0	 0	 0	 0	 0	 0	 221.788;
	 15	-10.5	 21.5	 105	-62	 1	 216.55	 1	 179	-200	 0	 0	 0	 0	 0	 0	 0	 0	 0	 0	 179;
	 15	-10.5	 21.5	 105	-62	 1	 179	 1	 179	-200	 0	 0	 0	 0	 0	 0	 0	 0	 0	 0	 179;
	 15	-10.5	 27.5	 130	-75	 1	 179	 1	 179	-200	 0	 0	 0	 0	 0	 0	 0	 0	 0	 0	 179;
	 16	-10.5	 30	 160	-100	 1	 179	 1	 179	-200	 0	 0	 0	 0	 0	 0	 0	 0	 0	 0	 179;
	 19	 40.5	-65	 35	-165	 1	 58.99	 1	 55	 26	 0	 0	 0	 0	 0	 0	 0	 0	 0	 0	 55;
	 20	 0	 0	 18.33	-18.33	 1	 55	 0	 55	 26	 0	 0	 0	 0	 0	 0	 0	 0	 0	 0	 55;
	 22	 142.5	 2	 184	-180	 1	 0.36	 1	 285	 0	 0	 0	 0	 0	 0	 0	 0	 0	 0	 0	 285;
	 29	 9	 0.5	 178	-177	 1	 18	 1	 18	 0	 0	 0	 0	 0	 0	 0	 0	 0	 0	 0	 18;
	 30	 11	-0.5	 179	-180	 1	 22	 1	 22	 0	 0	 0	 0	 0	 0	 0	 0	 0	 0	 0	 22;
	 37	 148	 9	 186	-168	 1	 0.24	 1	 296	 0	 0	 0	 0	 0	 0	 0	 0	 0	 0	 0	 296;
	 44	 135	 4.5	 178	-169	 1	 2	 1	 269	 1	 0	 0	 0	 0	 0	 0	 0	 0	 0	 0	 269;
	 45	 7.5	 11	 188	-166	 1	 15	 1	 15	 0	 0	 0	 0	 0	 0	 0	 0	 0	 0	 0	 15;
	 49	 142.5	 5.5	 191	-180	 1	 1	 1	 285	 0	 0	 0	 0	 0	 0	 0	 0	 0	 0	 0	 285;
	 54	 129	 10	 189	-169	 1	 0.12	 1	 258	 0	 0	 0	 0	 0	 0	 0	 0	 0	 0	 0	 258;
	 54	 0	 0	 33.33	-33.33	 1	 100	 0	 34.44	 19.44	 0	 0	 0	 0	 0	 0	 0	 0	 0	 0	 34.44;
	 58	 148.5	 9	 198	-180	 1	 9	 1	 297	 0	 0	 0	 0	 0	 0	 0	 0	 0	 0	 0	 297;
	 60	 139	-2.5	 179	-184	 1	 0.24	 1	 278	 0	 0	 0	 0	 0	 0	 0	 0	 0	 0	 0	 278;
	 68	 0	 0	 33.33	-33.33	 1	 100	 0	 137.95	 122.96	 0	 0	 0	 0	 0	 0	 0	 0	 0	 0	 137.955;
	 69	 226.96	-35.27	 282.12	-352.66	 1	 100	 1	 281.74	 172.18	 0	 0	 0	 0	 0	 0	 0	 0	 0	 0	 281.739;
	 74	 0	 0	 33.33	-33.33	 1	 100	 0	 85.25	 70.25	 0	 0	 0	 0	 0	 0	 0	 0	 0	 0	 85.248;
	 75	 149.935	-5.19	 41.51	-51.89	 1	 100	 1	 221.79	 78.08	 0	 0	 0	 0	 0	 0	 0	 0	 0	 0	 221.788;
	 80	-10.5	 21.5	 105	-62	 1	 216.55	 1	 179	-200	 0	 0	 0	 0	 0	 0	 0	 0	 0	 0	 179;
	 80	-10.5	 21.5	 105	-62	 1	 179	 1	 179	-200	 0	 0	 0	 0	 0	 0	 0	 0	 0	 0	 179;
	 80	-10.5	 27.5	 130	-75	 1	 179	 1	 179	-200	 0	 0	 0	 0	 0	 0	 0	 0	 0	 0	 179;
	 81	-10.5	 30	 160	-100	 1	 179	 1	 179	-200	 0	 0	 0	 0	 0	 0	 0	 0	 0	 0	 179;
	 84	 40.5	-70	 35	-175	 1	 58.99	 1	 55	 26	 0	 0	 0	 0	 0	 0	 0	 0	 0	 0	 55;
	 85	 0	 0	 18.33	-18.33	 1	 55	 0	 55	 26	 0	 0	 0	 0	 0	 0	 0	 0	 0	 0	 55;
	 87	 128	 9.5	 197	-178	 1	 0.36	 1	 256	 0	 0	 0	 0	 0	 0	 0	 0	 0	 0	 0	 256;
	 94	 9	 4.5	 179	-170	 1	 18	 1	 18	 0	 0	 0	 0	 0	 0	 0	 0	 0	 0	 0	 18;
	 95	 11	 7.5	 199	-184	 1	 22	 1	 22	 0	 0	 0	 0	 0	 0	 0	 0	 0	 0	 0	 22;
	 102	 134	 8	 182	-166	 1	 0.24	 1	 268	 0	 0	 0	 0	 0	 0	 0	 0	 0	 0	 0	 268;
	 109	 134.5	 3.5	 191	-184	 1	 2	 1	 268	 1	 0	 0	 0	 0	 0	 0	 0	 0	 0	 0	 268;
	 110	 7.5	 7.5	 191	-176	 1	 15	 1	 15	 0	 0	 0	 0	 0	 0	 0	 0	 0	 0	 0	 15;
	 114	 149	 6	 183	-171	 1	 1	 1	 298	 0	 0	 0	 0	 0	 0	 0	 0	 0	 0	 0	 298;
	 119	 141.5	 12.5	 192	-167	 1	 0.12	 1	 283	 0	 0	 0	 0	 0	 0	 0	 0	 0	 0	 0	 283;
	 119	 0	 0	 33.33	-33.33	 1	 100	 0	 34.44	 19.44	 0	 0	 0	 0	 0	 0	 0	 0	 0	 0	 34.44;
	 123	 132	 14	 200	-172	 1	 9	 1	 264	 0	 0	 0	 0	 0	 0	 0	 0	 0	 0	 0	 264;
	 125	 126.5	 14.5	 196	-167	 1	 0.24	 1	 253	 0	 0	 0	 0	 0	 0	 0	 0	 0	 0	 0	 253;
	 132	 13	 7.5	 192	-177	 1	 26	 1	 26	 0	 0	 0	 0	 0	 0	 0	 0	 0	 0	 0	 26;
	 132	 0	 0	 33.33	-33.33	 1	 100	 0	 273	 0.27	 0	 0	 0	 0	 0	 0	 0	 0	 0	 0	 273;
	 136	 130.5	 13.5	 198	-171	 1	 2	 1	 261	 0	 0	 0	 0	 0	 0	 0	 0	 0	 0	 0	 261;
	 137	 25	 8	 188	-172	 1	 50	 1	 50	 0	 0	 0	 0	 0	 0	 0	 0	 0	 0	 0	 50;
	 153	 0	 0	 8.33	-8.33	 1	 25	 0	 25	 10	 0	 0	 0	 0	 0	 0	 0	 0	 0	 0	 25;
	 153	 0	 0	 8.33	-8.33	 1	 25	 0	 25	 10	 0	 0	 0	 0	 0	 0	 0	 0	 0	 0	 25;
	 153	 20.625	 5.5	 179	-168	 1	 30	 1	 31.25	 10	 0	 0	 0	 0	 0	 0	 0	 0	 0	 0	 31.25;
	 153	 17.5	 5	 192	-182	 1	 25	 1	 25	 10	 0	 0	 0	 0	 0	 0	 0	 0	 0	 0	 25;
	 161	 95	 36	 73	-1	 1	 120	 1	 120	 70	 0	 0	 0	 0	 0	 0	 0	 0	 0	 0	 120;
	 161	 89.165	 36	 73	-1	 1	 120	 1	 120	 58.33	 0	 0	 0	 0	 0	 0	 0	 0	 0	 0	 120;
	 163	 0	 0	 33.33	-33.33	 1	 100	 0	 62.47	 47.47	 0	 0	 0	 0	 0	 0	 0	 0	 0	 0	 62.466;
	 166	 0	 0	 33.33	-33.33	 1	 100	 0	 259	 8.27	 0	 0	 0	 0	 0	 0	 0	 0	 0	 0	 259;
	 185	 41.15	 0	 87.18	-87.18	 1	 100	 1	 79.66	 2.64	 0	 0	 0	 0	 0	 0	 0	 0	 0	 0	 79.663;
];

mpc_regionR1.branch = [
%	fbus        tbus        r           x           b           rateA       rateB       rateC       ratio       angle       status      angmin      angmax      
	 1	 10	 0.00186	 0.02155	 0.05317	 461	 461	 461	 0	 0	 1	-30	 30;
	 2	 3	 0.00051	 0.0275	 0	 400	 400	 400	 1.07702	 0	 1	-30	 30;
	 2	 17	 0.00568	 0.04215	 0.0716	 317	 317	 317	 0	 0	 1	-30	 30;
	 3	 14	 0.00131	 0.01547	 0.41152	 838	 838	 838	 0	 0	 1	-30	 30;
	 3	 70	 0.0001	 0.01	 0	 158.96	 190.75	 238.44	 0	 0	 1	-30	 30;
	 4	 5	 1e-05	 6e-05	 0	 1593	 1593	 1593	 0	 0	 1	-30	 30;
	 6	 4	 0.00084	 0.06858	 0	 250	 250	 250	 0.9999	 0	 1	-30	 30;
	 4	 65	 0.00033	 0.00388	 0.10475	 831	 831	 831	 0	 0	 1	-30	 30;
	 4	 77	 0.0001	 0.01	 0	 126.64	 151.97	 189.97	 0	 0	 1	-30	 30;
	 5	 12	 0.0024	 0.02795	 0.75408	 838	 838	 838	 0	 0	 1	-30	 30;
	 5	 16	 0.00133	 0.01553	 0.41898	 831	 831	 831	 0	 0	 1	-30	 30;
	 5	 68	 0.0001	 0.01	 0	 149.53	 179.43	 224.29	 0	 0	 1	-30	 30;
	 23	 6	 0.00044	-0.00422	 0	 250	 250	 250	 1.06772	 0	 1	-30	 30;
	 24	 6	 0.00496	 0.06982	 0	 64.99	 84.49	 84.49	 0.98438	 0	 1	-30	 30;
	 7	 8	 2e-05	 0.00021	 0	 876	 876	 876	 0	 0	 1	-30	 30;
	 7	 10	 0.02738	 0.14254	 0.20047	 222	 222	 222	 0	 0	 1	-30	 30;
	 25	 7	 0.00015	 0.06524	 0	 160	 160	 160	 1.07325	 0	 1	-30	 30;
	 8	 17	 0.01909	 0.11277	 0.16673	 197	 197	 197	 0	 0	 1	-30	 30;
	 26	 8	 0.00027	 0.06715	 0	 160	 160	 160	 1.08282	 0	 1	-30	 30;
	 9	 10	 2e-05	 0.00021	 0	 876	 876	 876	 0	 0	 1	-30	 30;
	 9	 76	 0.0001	 0.01	 0	 83.7	 98.6	 125.55	 0	 0	 1	-30	 30;
	 11	 10	 0.00076	 0.0789	 0	 243.53	 316.58	 316.58	 0.9999	 0	 1	-30	 30;
	 10	 66	 0.0001	 0.01	 0	 83.7	 98.6	 125.55	 0	 0	 1	-30	 30;
	 33	 11	-0.00017	 0.16709	 0	 260	 312	 390	 0.94157	 0	 1	-30	 30;
	 11	 75	 0.0001	 0.01	 0	 83.7	 98.6	 125.55	 0	 0	 1	-30	 30;
	 12	 69	 0.0001	 0.01	 0	 129.32	 155.19	 193.98	 0	 0	 1	-30	 30;
	 13	 14	 1e-05	 6e-05	 0	 1593	 1593	 1593	 0	 0	 1	-30	 30;
	 13	 15	 0.0015	 0.01768	 0.46944	 831	 831	 831	 0	 0	 1	-30	 30;
	 52	 13	 0.00059	 0.04206	 0	 330	 330	 330	 1.04877	 0	 1	-30	 30;
	 15	 16	 1e-05	 6e-05	 0	 1593	 1593	 1593	 0	 0	 1	-30	 30;
	 63	 15	 0.00137	 0.05969	 0	 250	 250	 250	 1.05449	 0	 1	-30	 30;
	 64	 15	 0.00137	 0.05969	 0	 250	 250	 250	 1.05312	 0	 1	-30	 30;
	 15	 65	 0.001	 0.01165	 0.31426	 831	 831	 831	 0	 0	 1	-30	 30;
	 18	 37	 0.021	 0.0679	 0.00696	 101	 101	 101	 0	 0	 1	-30	 30;
	 18	 63	 0.02139	 0.06954	 0.00729	 120	 120	 120	 0	 0	 1	-30	 30;
	 19	 20	 8e-05	 0.00083	 0	 438	 438	 438	 0	 0	 1	-30	 30;
	 19	 25	 0.03025	 0.09752	 0.01002	 86	 86	 86	 0	 0	 1	-30	 30;
	 19	 28	 0.00983	 0.01736	 0.0016	 137	 137	 137	 0	 0	 1	-30	 30;
	 19	 63	 0.03669	 0.11818	 0.01217	 123	 123	 123	 0	 0	 1	-30	 30;
	 20	 42	 0.00711	 0.02314	 0.00234	 124	 124	 124	 0	 0	 1	-30	 30;
	 20	 48	 0.00331	 0.01074	 0.00109	 137	 137	 137	 0	 0	 1	-30	 30;
	 21	 25	 0.01116	 0.01529	 0.00275	 114	 114	 114	 0	 0	 1	-30	 30;
	 21	 40	 0.01116	 0.01529	 0.00275	 114	 114	 114	 0	 0	 1	-30	 30;
	 22	 37	 0.0405	 0.07107	 0.00673	 59.55	 71.46	 89.33	 0	 0	 1	-30	 30;
	 22	 51	 0.04628	 0.07107	 0.0076	 67.92	 81.51	 101.88	 0	 0	 1	-30	 30;
	 23	 39	 0.00124	 0.00413	 0.00039	 128	 128	 128	 0	 0	 1	-30	 30;
	 23	 43	 0.00793	 0.02231	 0.00215	 123	 123	 123	 0	 0	 1	-30	 30;
	 23	 45	 0.00124	 0.00413	 0.00041	 170.12	 204.15	 255.18	 0	 0	 1	-30	 30;
	 23	 185	 0.0001	 0.01	 0	 229.86	 275.83	 344.79	 0	 0	 1	-30	 30;
	 25	 49	 0.00124	 0.00413	 0.00039	 128	 128	 128	 0	 0	 1	-30	 30;
	 25	 61	 0.01977	 0.06457	 0.00658	 123	 123	 123	 0	 0	 1	-30	 30;
	 25	 62	 0.00218	 0.00712	 0.00073	 123	 123	 123	 0	 0	 1	-30	 30;
	 26	 35	 0.0065	 0.02121	 0.00216	 123	 123	 123	 0	 0	 1	-30	 30;
	 26	 119	 0.0001	 0.01	 0	 170.58	 204.7	 255.87	 0	 0	 1	-30	 30;
	 27	 28	 8e-05	 0.00083	 0	 438	 438	 438	 0	 0	 1	-30	 30;
	 27	 32	 0.00124	 0.00413	 0.00039	 128	 128	 128	 0	 0	 1	-30	 30;
	 27	 56	 0.00099	 0.00347	 0.00036	 137	 137	 137	 0	 0	 1	-30	 30;
	 27	 61	 0.01083	 0.03471	 0.00358	 137	 137	 137	 0	 0	 1	-30	 30;
	 28	 31	 0.00496	 0.01273	 0.00128	 95	 95	 95	 0	 0	 1	-30	 30;
	 28	 55	 0.00124	 0.00413	 0.00039	 128	 128	 128	 0	 0	 1	-30	 30;
	 29	 30	 0.00142	 0.00465	 0.00047	 123	 123	 123	 0	 0	 1	-30	 30;
	 29	 58	 0.00408	 0.01332	 0.00136	 123	 123	 123	 0	 0	 1	-30	 30;
	 30	 64	 0.01705	 0.05552	 0.00567	 137	 137	 137	 0	 0	 1	-30	 30;
	 31	 46	 0.00372	 0.00934	 0.00094	 120	 120	 120	 0	 0	 1	-30	 30;
	 32	 55	 0.00124	 0.00413	 0.00039	 128	 128	 128	 0	 0	 1	-30	 30;
	 34	 62	 0.00133	 0.00434	 0.00044	 123	 123	 123	 0	 0	 1	-30	 30;
	 36	 42	 0.00289	 0.00926	 0.00094	 137	 137	 137	 0	 0	 1	-30	 30;
	 36	 56	 0.00207	 0.00694	 0.0007	 137	 137	 137	 0	 0	 1	-30	 30;
	 37	 38	 0.00413	 0.01372	 0.00138	 62	 62	 62	 0	 0	 1	-30	 30;
	 38	 60	 0.03438	 0.06099	 0.00569	 62	 62	 62	 0	 0	 1	-30	 30;
	 39	 40	 8e-05	 0.00083	 0	 438	 438	 438	 0	 0	 1	-30	 30;
	 39	 41	 0.00124	 0.00413	 0.00039	 128	 128	 128	 0	 0	 1	-30	 30;
	 40	 41	 0.00124	 0.00413	 0.00039	 128	 128	 128	 0	 0	 1	-30	 30;
	 44	 60	 0.0395	 0.1281	 0.01314	 62	 62	 62	 0	 0	 1	-30	 30;
	 44	 64	 0.00165	 0.00496	 0.00053	 137	 137	 137	 0	 0	 1	-30	 30;
	 46	 62	 0.0235	 0.07683	 0.00783	 123	 123	 123	 0	 0	 1	-30	 30;
	 47	 48	 0.00645	 0.02066	 0.00213	 137	 137	 137	 0	 0	 1	-30	 30;
	 47	 58	 0.04174	 0.07322	 0.00692	 90	 90	 90	 0	 0	 1	-30	 30;
	 47	 59	 0.01132	 0.03636	 0.00375	 137	 137	 137	 0	 0	 1	-30	 30;
	 50	 52	 0.04351	 0.09356	 0.00962	 54.76	 71.18	 71.18	 0	 0	 1	-30	 30;
	 51	 54	 0.01653	 0.03306	 0.00242	 62.58	 75.1	 93.87	 0	 0	 1	-30	 30;
	 52	 53	 8e-05	 0.00083	 0	 438	 438	 438	 0	 0	 1	-30	 30;
	 52	 57	 0.02394	 0.04718	 0.00469	 58.83	 76.48	 76.48	 0	 0	 1	-30	 30;
	 54	 143	 0.0001	 0.01	 0	 193.33	 231.99	 289.99	 0	 0	 1	-30	 30;
	 59	 63	 0.01721	 0.05623	 0.00573	 140	 140	 140	 0	 0	 1	-30	 30;
	 63	 64	 8e-05	 0.00083	 0	 438	 438	 438	 0	 0	 1	-30	 30;
	 66	 75	 0.00186	 0.02155	 0.05317	 461	 461	 461	 0	 0	 1	-30	 30;
	 67	 68	 0.00051	 0.0275	 0	 400	 400	 400	 1.07702	 0	 1	-30	 30;
	 67	 82	 0.00568	 0.04215	 0.0716	 317	 317	 317	 0	 0	 1	-30	 30;
	 68	 79	 0.00131	 0.01547	 0.41152	 838	 838	 838	 0	 0	 1	-30	 30;
	 69	 70	 1e-05	 6e-05	 0	 1593	 1593	 1593	 0	 0	 1	-30	 30;
	 71	 69	 0.00084	 0.06858	 0	 250	 250	 250	 0.9999	 0	 1	-30	 30;
	 69	 130	 0.00033	 0.00388	 0.10475	 831	 831	 831	 0	 0	 1	-30	 30;
	 70	 77	 0.0024	 0.02795	 0.75408	 838	 838	 838	 0	 0	 1	-30	 30;
	 70	 81	 0.00133	 0.01553	 0.41898	 831	 831	 831	 0	 0	 1	-30	 30;
	 88	 71	 0.00044	-0.00422	 0	 250	 250	 250	 1.06772	 0	 1	-30	 30;
	 89	 71	 0.00496	 0.06982	 0	 64.99	 84.49	 84.49	 0.98438	 0	 1	-30	 30;
	 72	 73	 2e-05	 0.00021	 0	 876	 876	 876	 0	 0	 1	-30	 30;
	 72	 75	 0.02738	 0.14254	 0.20047	 222	 222	 222	 0	 0	 1	-30	 30;
	 90	 72	 0.00015	 0.06524	 0	 160	 160	 160	 1.07325	 0	 1	-30	 30;
	 73	 82	 0.01909	 0.11277	 0.16673	 197	 197	 197	 0	 0	 1	-30	 30;
	 91	 73	 0.00027	 0.06715	 0	 160	 160	 160	 1.08282	 0	 1	-30	 30;
	 74	 75	 2e-05	 0.00021	 0	 876	 876	 876	 0	 0	 1	-30	 30;
	 74	 131	 0.0001	 0.01	 0	 269.8	 323.76	 404.7	 0	 0	 1	-30	 30;
	 76	 75	 0.00076	 0.0789	 0	 243.53	 316.58	 316.58	 0.9999	 0	 1	-30	 30;
	 98	 76	-0.00017	 0.16709	 0	 260	 312	 390	 0.94157	 0	 1	-30	 30;
	 78	 79	 1e-05	 6e-05	 0	 1593	 1593	 1593	 0	 0	 1	-30	 30;
	 78	 80	 0.0015	 0.01768	 0.46944	 831	 831	 831	 0	 0	 1	-30	 30;
	 117	 78	 0.00059	 0.04206	 0	 330	 330	 330	 1.04877	 0	 1	-30	 30;
	 80	 81	 1e-05	 6e-05	 0	 1593	 1593	 1593	 0	 0	 1	-30	 30;
	 128	 80	 0.00137	 0.05969	 0	 250	 250	 250	 1.05449	 0	 1	-30	 30;
	 129	 80	 0.00137	 0.05969	 0	 250	 250	 250	 1.05312	 0	 1	-30	 30;
	 80	 130	 0.001	 0.01165	 0.31426	 831	 831	 831	 0	 0	 1	-30	 30;
	 83	 102	 0.021	 0.0679	 0.00696	 101	 101	 101	 0	 0	 1	-30	 30;
	 83	 128	 0.02139	 0.06954	 0.00729	 120	 120	 120	 0	 0	 1	-30	 30;
	 84	 85	 8e-05	 0.00083	 0	 438	 438	 438	 0	 0	 1	-30	 30;
	 84	 90	 0.03025	 0.09752	 0.01002	 86	 86	 86	 0	 0	 1	-30	 30;
	 84	 93	 0.00983	 0.01736	 0.0016	 137	 137	 137	 0	 0	 1	-30	 30;
	 84	 128	 0.03669	 0.11818	 0.01217	 123	 123	 123	 0	 0	 1	-30	 30;
	 85	 107	 0.00711	 0.02314	 0.00234	 124	 124	 124	 0	 0	 1	-30	 30;
	 85	 113	 0.00331	 0.01074	 0.00109	 137	 137	 137	 0	 0	 1	-30	 30;
	 86	 90	 0.01116	 0.01529	 0.00275	 114	 114	 114	 0	 0	 1	-30	 30;
	 86	 105	 0.01116	 0.01529	 0.00275	 114	 114	 114	 0	 0	 1	-30	 30;
	 87	 102	 0.0405	 0.07107	 0.00673	 88.34	 106.01	 132.51	 0	 0	 1	-30	 30;
	 87	 116	 0.04628	 0.07107	 0.0076	 82.01	 98.42	 123.02	 0	 0	 1	-30	 30;
	 88	 104	 0.00124	 0.00413	 0.00039	 128	 128	 128	 0	 0	 1	-30	 30;
	 88	 108	 0.00793	 0.02231	 0.00215	 176.21	 211.46	 264.32	 0	 0	 1	-30	 30;
	 88	 110	 0.00124	 0.00413	 0.00041	 137	 137	 137	 0	 0	 1	-30	 30;
	 90	 114	 0.00124	 0.00413	 0.00039	 128	 128	 128	 0	 0	 1	-30	 30;
	 90	 126	 0.01977	 0.06457	 0.00658	 123	 123	 123	 0	 0	 1	-30	 30;
	 90	 127	 0.00218	 0.00712	 0.00073	 123	 123	 123	 0	 0	 1	-30	 30;
	 91	 100	 0.0065	 0.02121	 0.00216	 123	 123	 123	 0	 0	 1	-30	 30;
	 91	 163	 0.0001	 0.01	 0	 83.7	 98.6	 125.55	 0	 0	 1	-30	 30;
	 92	 93	 8e-05	 0.00083	 0	 438	 438	 438	 0	 0	 1	-30	 30;
	 92	 97	 0.00124	 0.00413	 0.00039	 128	 128	 128	 0	 0	 1	-30	 30;
	 92	 121	 0.00099	 0.00347	 0.00036	 137	 137	 137	 0	 0	 1	-30	 30;
	 92	 126	 0.01083	 0.03471	 0.00358	 137	 137	 137	 0	 0	 1	-30	 30;
	 93	 96	 0.00496	 0.01273	 0.00128	 95	 95	 95	 0	 0	 1	-30	 30;
	 93	 120	 0.00124	 0.00413	 0.00039	 128	 128	 128	 0	 0	 1	-30	 30;
	 94	 95	 0.00142	 0.00465	 0.00047	 123	 123	 123	 0	 0	 1	-30	 30;
	 94	 123	 0.00408	 0.01332	 0.00136	 123	 123	 123	 0	 0	 1	-30	 30;
	 95	 129	 0.01705	 0.05552	 0.00567	 137	 137	 137	 0	 0	 1	-30	 30;
	 96	 111	 0.00372	 0.00934	 0.00094	 120	 120	 120	 0	 0	 1	-30	 30;
	 97	 120	 0.00124	 0.00413	 0.00039	 128	 128	 128	 0	 0	 1	-30	 30;
	 99	 127	 0.00133	 0.00434	 0.00044	 123	 123	 123	 0	 0	 1	-30	 30;
	 101	 107	 0.00289	 0.00926	 0.00094	 137	 137	 137	 0	 0	 1	-30	 30;
	 101	 121	 0.00207	 0.00694	 0.0007	 137	 137	 137	 0	 0	 1	-30	 30;
	 102	 103	 0.00413	 0.01372	 0.00138	 62	 62	 62	 0	 0	 1	-30	 30;
	 103	 125	 0.03438	 0.06099	 0.00569	 62	 62	 62	 0	 0	 1	-30	 30;
	 104	 105	 8e-05	 0.00083	 0	 438	 438	 438	 0	 0	 1	-30	 30;
	 104	 106	 0.00124	 0.00413	 0.00039	 128	 128	 128	 0	 0	 1	-30	 30;
	 105	 106	 0.00124	 0.00413	 0.00039	 128	 128	 128	 0	 0	 1	-30	 30;
	 108	 132	 0.0001	 0.01	 0	 131.42	 157.71	 197.13	 0	 0	 1	-30	 30;
	 109	 125	 0.0395	 0.1281	 0.01314	 62	 62	 62	 0	 0	 1	-30	 30;
	 109	 129	 0.00165	 0.00496	 0.00053	 137	 137	 137	 0	 0	 1	-30	 30;
	 111	 127	 0.0235	 0.07683	 0.00783	 123	 123	 123	 0	 0	 1	-30	 30;
	 112	 113	 0.00645	 0.02066	 0.00213	 137	 137	 137	 0	 0	 1	-30	 30;
	 112	 123	 0.04174	 0.07322	 0.00692	 90	 90	 90	 0	 0	 1	-30	 30;
	 112	 124	 0.01132	 0.03636	 0.00375	 137	 137	 137	 0	 0	 1	-30	 30;
	 115	 117	 0.04351	 0.09356	 0.00962	 54.76	 71.18	 71.18	 0	 0	 1	-30	 30;
	 116	 119	 0.01653	 0.03306	 0.00242	 76.66	 91.99	 114.99	 0	 0	 1	-30	 30;
	 117	 118	 8e-05	 0.00083	 0	 438	 438	 438	 0	 0	 1	-30	 30;
	 117	 122	 0.02394	 0.04718	 0.00469	 58.83	 76.48	 76.48	 0	 0	 1	-30	 30;
	 124	 128	 0.01721	 0.05623	 0.00573	 140	 140	 140	 0	 0	 1	-30	 30;
	 128	 129	 8e-05	 0.00083	 0	 438	 438	 438	 0	 0	 1	-30	 30;
	 132	 133	 0.05504	 0.1643	 0.01682	 114.16	 137	 171.24	 0	 0	 1	-30	 30;
	 133	 134	 8e-05	 0.00083	 0	 438	 438	 438	 0	 0	 1	-30	 30;
	 133	 136	 0.00926	 0.03008	 0.00307	 123	 123	 123	 0	 0	 1	-30	 30;
	 133	 137	 0.01463	 0.05661	 0.00653	 140	 140	 140	 0	 0	 1	-30	 30;
	 133	 138	 0.02688	 0.08734	 0.00915	 123	 123	 123	 0	 0	 1	-30	 30;
	 135	 136	 0.00132	 0.00421	 0.00044	 119	 119	 119	 0	 0	 1	-30	 30;
	 139	 140	 8e-05	 0.00083	 0	 438	 438	 438	 0	 0	 1	-30	 30;
	 139	 173	 0.00364	 0.01149	 0.00123	 175.28	 210.34	 262.92	 0	 0	 1	-30	 30;
	 140	 179	 0.00653	 0.02058	 0.00222	 170.42	 204.51	 255.63	 0	 0	 1	-30	 30;
	 141	 142	 8e-05	 0.00083	 0	 438	 438	 438	 0	 0	 1	-30	 30;
	 141	 157	 0.00488	 0.01231	 0.00189	 74.62	 97.01	 97.01	 0	 0	 1	-30	 30;
	 142	 190	 0.00074	 0.00223	 0.0003	 62	 62	 62	 0	 0	 1	-30	 30;
	 143	 173	 0.00157	 0.00463	 0.00057	 178.28	 213.94	 267.43	 0	 0	 1	-30	 30;
	 144	 145	 8e-05	 0.00083	 0	 438	 438	 438	 0	 0	 1	-30	 30;
	 144	 157	 0.00455	 0.01289	 0.00174	 62	 62	 62	 0	 0	 1	-30	 30;
	 145	 194	 0.00603	 0.01711	 0.00231	 62	 62	 62	 0	 0	 1	-30	 30;
	 146	 147	 8e-05	 0.00083	 0	 438	 438	 438	 0	 0	 1	-30	 30;
	 146	 148	 0.0005	 0.00149	 0.0096	 98	 98	 98	 0	 0	 1	-30	 30;
	 148	 153	 8e-05	 0.00066	 7e-05	 98	 98	 98	 0	 0	 1	-30	 30;
	 148	 185	 0.00207	 0.01413	 0.00162	 98	 98	 98	 0	 0	 1	-30	 30;
	 149	 150	 8e-05	 0.00083	 0	 438	 438	 438	 0	 0	 1	-30	 30;
	 149	 157	 0.00405	 0.01331	 0.00135	 77.01	 92.41	 115.51	 0	 0	 1	-30	 30;
	 150	 181	 0.01025	 0.02926	 0.0039	 77.98	 93.57	 116.96	 0	 0	 1	-30	 30;
	 151	 152	 0.00231	 0.00273	 0.00058	 39	 39	 39	 0	 0	 1	-30	 30;
	 152	 161	 0.00579	 0.01785	 0.00204	 105	 105	 105	 0	 0	 1	-30	 30;
	 152	 177	 0.0043	 0.01347	 0.00147	 105	 105	 105	 0	 0	 1	-30	 30;
	 154	 177	 0.00686	 0.02215	 0.00232	 75	 75	 75	 0	 0	 1	-30	 30;
	 155	 156	 0.00033	 0.00041	 9e-05	 39	 39	 39	 0	 0	 1	-30	 30;
	 156	 161	 0.0076	 0.02355	 0.00263	 163.37	 196.05	 245.06	 0	 0	 1	-30	 30;
	 156	 178	 0.00273	 0.00876	 0.0009	 163.87	 196.65	 245.81	 0	 0	 1	-30	 30;
	 157	 185	 0.01694	 0.05562	 0.0056	 62	 62	 62	 0	 0	 1	-30	 30;
	 158	 161	 0.03413	 0.08545	 0.00909	 74.04	 96.25	 96.25	 0	 0	 1	-30	 30;
	 158	 165	 0.00992	 0.01661	 0.00395	 88.37	 106.05	 132.56	 0	 0	 1	-30	 30;
	 158	 169	 0.02496	 0.03802	 0.00491	 100.27	 120.32	 150.4	 0	 0	 1	-30	 30;
	 158	 192	 0.0062	 0.01562	 0.00277	 62	 62	 62	 0	 0	 1	-30	 30;
...
];

mpc_regionR1.gencost = [
%	2           startup     shutdown    n           c(n-1)...c0 
	 2	 0	 0	 3	 0	 23.535653	 0;
	 2	 0	 0	 3	 0	 27.46502	 0;
	 2	 0	 0	 3	 0	 34.2278	 0;
	 2	 0	 0	 3	 0	 36.624241	 0;
	 2	 0	 0	 3	 0	 48.190116	 0;
	 2	 0	 0	 3	 0	 37.933947	 0;
	 2	 0	 0	 3	 0	 12.156093	 0;
	 2	 0	 0	 3	 0	 36.057882	 0;
	 2	 0	 0	 3	 0	 46.037465	 0;
	 2	 0	 0	 3	 0	 18.648445	 0;
	 2	 0	 0	 3	 0	 47.503236	 0;
	 2	 0	 0	 3	 0	 103.913889	 0;
	 2	 0	 0	 3	 0	 41.991113	 0;
	 2	 0	 0	 3	 0	 33.415433	 0;
	 2	 0	 0	 3	 0	 26.331314	 0;
	 2	 0	 0	 3	 0	 41.212053	 0;
	 2	 0	 0	 3	 0	 37.964524	 0;
	 2	 0	 0	 3	 0	 28.621957	 0;
	 2	 0	 0	 3	 0	 24.735716	 0;
	 2	 0	 0	 3	 0	 30.362388	 0;
	 2	 0	 0	 3	 0	 38.096425	 0;
	 2	 0	 0	 3	 0	 39.564385	 0;
	 2	 0	 0	 3	 0	 48.503408	 0;
	 2	 0	 0	 3	 0	 36.698208	 0;
	 2	 0	 0	 3	 0	 29.832915	 0;
	 2	 0	 0	 3	 0	 19.462995	 0;
	 2	 0	 0	 3	 0	 24.670298	 0;
	 2	 0	 0	 3	 0	 42.514759	 0;
	 2	 0	 0	 3	 0	 19.631594	 0;
	 2	 0	 0	 3	 0	 44.491363	 0;
	 2	 0	 0	 3	 0	 28.563386	 0;
	 2	 0	 0	 3	 0	 44.314937	 0;
	 2	 0	 0	 3	 0	 30.86321	 0;
	 2	 0	 0	 3	 0	 122.118278	 0;
	 2	 0	 0	 3	 0	 42.045828	 0;
	 2	 0	 0	 3	 0	 19.858774	 0;
	 2	 0	 0	 3	 0	 100.342657	 0;
	 2	 0	 0	 3	 0	 6.557863	 0;
	 2	 0	 0	 3	 0	 32.124894	 0;
	 2	 0	 0	 3	 0	 120.383376	 0;
	 2	 0	 0	 3	 0	 53.898136	 0;
	 2	 0	 0	 3	 0	 30.44223	 0;
	 2	 0	 0	 3	 0	 34.799871	 0;
	 2	 0	 0	 3	 0	 28.78128	 0;
	 2	 0	 0	 3	 0	 37.79375	 0;
	 2	 0	 0	 3	 0	 26.464892	 0;
	 2	 0	 0	 3	 0	 39.300841	 0;
	 2	 0	 0	 3	 0	 24.508809	 0;
	 2	 0	 0	 3	 0	 102.118437	 0;
	 2	 0	 0	 3	 0	 25.764471	 0;
	 2	 0	 0	 3	 0	 17.836918	 0;
	 2	 0	 0	 3	 0	 6.191415	 0;
	 2	 0	 0	 3	 0	 31.037366	 0;
	 2	 0	 0	 3	 0	 26.150452	 0;
	 2	 0	 0	 3	 0	 35.87963	 0;
];


% -------------------- mpc_regionR2 --------------------

mpc_regionR2.version = '2';
mpc_regionR2.baseMVA = 100.0000;
mpc_regionR2.bus = [
%	bus_i       type        Pd          Qd          Gs          Bs          area        Vm          Va          baseKV      zone        Vmax        Vmin        
	 1	 1	 40.59	 70.73	 0	 0	 3	 1	 0	 345	 3	 1.1	 0.9;
	 2	 2	 0	 0	 0	-176.98	 3	 1	 0	 345	 3	 1.1	 0.9;
	 3	 2	 0	 0	 0	 0	 3	 1	 0	 500	 3	 1.1	 0.9;
	 4	 1	 0	 0	 0	 0	 3	 1	 0	 500	 3	 1.1	 0.9;
	 5	 2	 0	 0	 0	 17.28	 3	 1	 0	 500	 3	 1.1	 0.9;
	 6	 1	 8.38	 1.2	 0	 0	 3	 1	 0	 138	 3	 1.1	 0.9;
	 7	 1	 4.83	 1.1	 0	 0	 3	 1	 0	 138	 3	 1.1	 0.9;
	 8	 2	 0	 0	 0	 0	 3	 1	 0	 138	 3	 1.1	 0.9;
	 9	 1	 11.55	 5.82	 0	 0	 3	 1	 0	 138	 3	 1.1	 0.9;
	 10	 1	 13.16	 4.92	 0	 0	 3	 1	 0	 138	 3	 1.1	 0.9;
	 11	 1	 26.04	 3.35	 0	 0	 3	 1	 0	 138	 3	 1.1	 0.9;
	 12	 2	 12.56	 2.11	 0	 13.51	 3	 1	 0	 138	 3	 1.1	 0.9;
	 13	 1	 4.72	 0.7	 0	 0	 3	 1	 0	 138	 3	 1.1	 0.9;
	 14	 2	 9.45	-3.27	 0	 0	 3	 1	 0	 138	 3	 1.1	 0.9;
	 15	 1	 10.15	 4.22	 0	 0	 3	 1	 0	 138	 3	 1.1	 0.9;
	 16	 1	 0	 0	 0	 0	 3	 1	 0	 138	 3	 1.1	 0.9;
	 17	 1	 0	 0	 0	 0	 3	 1	 0	 138	 3	 1.1	 0.9;
	 18	 1	 0	 0	 0	 0	 3	 1	 0	 138	 3	 1.1	 0.9;
	 19	 1	 0	 0	 0	 60	 3	 1	 0	 16	 3	 1.1	 0.9;
	 20	 1	 17.78	 4.22	 0	 0	 3	 1	 0	 138	 3	 1.1	 0.9;
	 21	 1	 8.04	 4.12	 0	 0	 3	 1	 0	 138	 3	 1.1	 0.9;
	 22	 2	 0.01	 0.01	 0	 0	 3	 1	 0	 138	 3	 1.1	 0.9;
	 23	 2	 73.33	 31.39	 0	 0	 3	 1	 0	 138	 3	 1.1	 0.9;
	 24	 1	 62.9	 26.21	 0	 0	 3	 1	 0	 138	 3	 1.1	 0.9;
	 25	 1	 0	 0	 0	 0	 3	 1	 0	 138	 3	 1.1	 0.9;
	 26	 1	 8.34	 2.61	 0	 0	 3	 1	 0	 138	 3	 1.1	 0.9;
	 27	 2	 5.12	 0.68	 0	 0	 3	 1	 0	 138	 3	 1.1	 0.9;
	 28	 1	 15.17	 4.72	 0	 0	 3	 1	 0	 138	 3	 1.1	 0.9;
	 29	 2	 8.94	 2.32	 0	 3.95	 3	 1	 0	 138	 3	 1.1	 0.9;
	 30	 1	 13.99	 11.8	 0	 0	 3	 1	 0	 138	 3	 1.1	 0.9;
	 31	 1	 9.45	 2.21	 0	 0	 3	 1	 0	 138	 3	 1.1	 0.9;
	 32	 1	 11.55	 2.61	 0	 0	 3	 1	 0	 138	 3	 1.1	 0.9;
	 33	 1	 3.92	 1.61	 0	 0	 3	 1	 0	 138	 3	 1.1	 0.9;
	 34	 1	 16.28	 5.22	 0	 3.33	 3	 1	 0	 138	 3	 1.1	 0.9;
	 35	 1	 12.46	 5.82	 0	 0	 3	 1	 0	 138	 3	 1.1	 0.9;
	 36	 2	 0	 0	 0	 15.41	 3	 1	 0	 138	 3	 1.1	 0.9;
	 37	 2	 12.56	 4.22	 0	-33.87	 3	 1	 0	 138	 3	 1.1	 0.9;
	 38	 1	 23.61	 4.72	 0	 0	 3	 1	 0	 138	 3	 1.1	 0.9;
	 39	 1	 0.1	 0.1	 0	 0	 3	 1	 0	 138	 3	 1.1	 0.9;
	 40	 1	 0.1	 0.1	 0	 0	 3	 1	 0	 138	 3	 1.1	 0.9;
	 41	 2	 9.45	 2.31	 0	 0	 3	 1	 0	 138	 3	 1.1	 0.9;
	 42	 1	 13.56	 6.23	 0	 0	 3	 1	 0	 138	 3	 1.1	 0.9;
	 43	 1	 6.83	 2.61	 0	 0	 3	 1	 0	 138	 3	 1.1	 0.9;
	 44	 1	 4.72	 2.61	 0	 0	 3	 1	 0	 138	 3	 1.1	 0.9;
	 45	 1	 6.33	 0.9	 0	 0	 3	 1	 0	 138	 3	 1.1	 0.9;
	 46	 1	 4.12	 2.51	 0	 0	 3	 1	 0	 138	 3	 1.1	 0.9;
	 47	 2	 0.01	 0.01	 0	 0	 3	 1	 0	 138	 3	 1.1	 0.9;
	 48	 1	 44.31	-3	 0	 0	 3	 1	 0	 138	 3	 1.1	 0.9;
	 49	 2	 6.33	 1.57	 0	 1.75	 3	 1	 0	 138	 3	 1.1	 0.9;
	 50	 1	 61.44	 45.53	 0	 0	 4	 1	 0	 345	 4	 1.1	 0.9;
	 51	 1	 0	 0	 0	 0	 4	 1	 0	 345	 4	 1.1	 0.9;
	 52	 2	 33.51	 159.4	 0	 0	 4	 1	 0	 345	 4	 1.1	 0.9;
	 53	 2	 19.91	 36.57	 0	 0	 4	 1	 0	 345	 4	 1.1	 0.9;
	 54	 2	 12	 30	 0	 0	 4	 1	 0	 500	 4	 1.1	 0.9;
	 55	 2	 12	 30	 0	 0	 4	 1	 0	 500	 4	 1.1	 0.9;
	 56	 2	 0	 0	 0	 0	 4	 1	 0	 500	 4	 1.1	 0.9;
	 57	 1	 0	 0	 0	 93.07	 4	 1	 0	 500	 4	 1.1	 0.9;
	 58	 1	 33.41	 22.47	 0	 0	 4	 1	 0	 345	 4	 1.1	 0.9;
	 59	 1	 18.51	 68.88	 0	 0	 4	 1	 0	 345	 4	 1.1	 0.9;
	 60	 1	 0	 0	 0	 168.92	 4	 1	 0	 500	 4	 1.1	 0.9;
	 61	 1	 81.5	 85.9	 0	 0	 4	 1	 0	 345	 4	 1.1	 0.9;
	 62	 1	 0	 0	 0	 0	 4	 1	 0	 500	 4	 1.1	 0.9;
	 63	 1	 0	 0	 0	 0	 4	 1	 0	 500	 4	 1.1	 0.9;
	 64	 1	 0	 0	 0	-59	 4	 1	 0	 500	 4	 1.1	 0.9;
	 65	 1	 10.84	 2.51	 0	 0	 4	 1	 0	 138	 4	 1.1	 0.9;
	 66	 2	 129.48	 36.94	 0	 0	 4	 1	 0	 138	 4	 1.1	 0.9;
	 67	 1	 0	 0	 0	 0	 4	 1	 0	 138	 4	 1.1	 0.9;
	 68	 1	 6.56	 2.09	 0	 0	 4	 1	 0	 138	 4	 1.1	 0.9;
	 69	 1	 9.38	 2.09	 0	 0	 4	 1	 0	 138	 4	 1.1	 0.9;
	 70	 1	 12.5	 2.2	 0	 0	 4	 1	 0	 138	 4	 1.1	 0.9;
	 71	 1	 15.73	 5.75	 0	 0	 4	 1	 0	 138	 4	 1.1	 0.9;
	 72	 2	 18.77	 6.81	 0	-25.03	 4	 1	 0	 138	 4	 1.1	 0.9;
	 73	 2	 17.19	 7.74	 0	-0.13	 4	 1	 0	 138	 4	 1.1	 0.9;
	 74	 1	 0	 0	 0	 0.42	 4	 1	 0	 138	 4	 1.1	 0.9;
	 75	 1	 83.04	 9.34	 0	 0	 4	 1	 0	 138	 4	 1.1	 0.9;
	 76	 1	 14.59	 5.34	 0	 0	 4	 1	 0	 138	 4	 1.1	 0.9;
	 77	 2	 50.24	 12.27	 0	 0	 4	 1	 0	 138	 4	 1.1	 0.9;
	 78	 1	 0	 0	 0	 41.49	 4	 1	 0	 16	 4	 1.1	 0.9;
	 79	 1	 0	 0	 0	-1.98	 4	 1	 0	 138	 4	 1.1	 0.9;
	 80	 1	 0	 0	 0	-50	 4	 1	 0	 138	 4	 1.1	 0.9;
	 81	 1	 54.98	-10.05	 0	 0	 4	 1	 0	 138	 4	 1.1	 0.9;
	 82	 1	 0	 0	 0	 0	 4	 1	 0	 138	 4	 1.1	 0.9;
	 83	 1	 11.06	-10.28	 0	 0	 4	 1	 0	 138	 4	 1.1	 0.9;
	 84	 1	 11.46	 3.77	 0	 0	 4	 1	 0	 138	 4	 1.1	 0.9;
	 85	 1	 11.46	 4.08	 0	 0	 4	 1	 0	 138	 4	 1.1	 0.9;
	 86	 1	 80.63	-3.06	 0	 0	 4	 1	 0	 138	 4	 1.1	 0.9;
	 87	 1	 8.13	 4.5	 0	 0	 4	 1	 0	 138	 4	 1.1	 0.9;
	 88	 1	 61.27	 10.16	 0	 0	 4	 1	 0	 138	 4	 1.1	 0.9;
	 89	 1	 0	 0	 0	 0	 4	 1	 0	 500	 4	 1.1	 0.9;
	 90	 2	 634	 0	 0	 0	 4	 1	 0	 345	 4	 1.1	 0.9;
	 91	 1	 0	 0	 0	 0	 5	 1	 0	 69	 5	 1.1	 0.9;
	 92	 1	 21.69	-1.14	 0	 0	 5	 1	 0	 69	 5	 1.1	 0.9;
	 93	 2	 0	 0	 0	 0	 5	 1	 0	 13.8	 5	 1.1	 0.9;
	 94	 1	 1.22	-1.86	 0	 0	 5	 1	 0	 69	 5	 1.1	 0.9;
	 95	 1	-0.01	 0.48	 0	 0	 5	 1	 0	 69	 5	 1.1	 0.9;
	 96	 1	 0	 0	 0	 0	 5	 1	 0	 69	 5	 1.1	 0.9;
	 97	 2	 0	 0	 0	 11.26	 5	 1	 0	 138	 5	 1.1	 0.9;
	 98	 1	 5.07	-2.42	 0	 0	 5	 1	 0	 69	 5	 1.1	 0.9;
	 99	 1	 8.98	-1.01	 0	 0	 5	 1	 0	 69	 5	 1.1	 0.9;
	 100	 1	 0	 0	 0	 0	 5	 1	 0	 69	 5	 1.1	 0.9;
	 101	 1	 9.01	-0.97	 0	 0	 5	 1	 0	 69	 5	 1.1	 0.9;
	 102	 1	 0.95	-2.5	 0	 0	 5	 1	 0	 69	 5	 1.1	 0.9;
	 103	 1	 0	 0	 0	 0	 5	 1	 0	 161	 5	 1.1	 0.9;
	 104	 1	 0.08	 0.5	 0	 0	 5	 1	 0	 69	 5	 1.1	 0.9;
	 105	 2	 0	 0	 0	 0	 5	 1	 0	 138	 5	 1.1	 0.9;
	 106	 1	 0	 0	 0	 0	 5	 1	 0	 69	 5	 1.1	 0.9;
	 107	 1	 1.76	-1.57	 0	 0	 5	 1	 0	 69	 5	 1.1	 0.9;
	 108	 2	 0	 0	 0	 0	 5	 1	 0	 13.8	 5	 1.1	 0.9;
	 109	 2	 0	 0	 0	 0	 5	 1	 0	 138	 5	 1.1	 0.9;
	 110	 1	 0	 0	 0	 0	 5	 1	 0	 69	 5	 1.1	 0.9;
	 111	 1	 1.7	-1.58	 0	 0	 5	 1	 0	 69	 5	 1.1	 0.9;
	 112	 1	 2.97	 0.04	 0	 0	 5	 1	 0	 69	 5	 1.1	 0.9;
	 113	 1	 0	 0	 0	 0	 5	 1	 0	 69	 5	 1.1	 0.9;
	 114	 1	 10.44	 0.39	 0	 0	 5	 1	 0	 69	 5	 1.1	 0.9;
	 115	 1	 0	 0	 0	 0	 5	 1	 0	 69	 5	 1.1	 0.9;
	 116	 1	-0.23	-7.22	 0	 0	 5	 1	 0	 69	 5	 1.1	 0.9;
	 117	 1	 6.04	-2.39	 0	 0	 5	 1	 0	 69	 5	 1.1	 0.9;
	 118	 1	 1.91	-0.45	 0	 0	 5	 1	 0	 69	 5	 1.1	 0.9;
	 119	 1	-0.03	 0.48	 0	 0	 5	 1	 0	 69	 5	 1.1	 0.9;
	 120	 1	 7.6	 4.63	 0	 0	 5	 1	 0	 69	 5	 1.1	 0.9;
	 121	 1	 0	 0	 0	 0	 5	 1	 0	 161	 5	 1.1	 0.9;
	 122	 1	 8.42	 5.12	 0	 10	 5	 1	 0	 69	 5	 1.1	 0.9;
	 123	 2	 0	 0	 0	 0	 5	 1	 0	 13.8	 5	 1.1	 0.9;
	 124	 1	 7.04	-0.67	 0	 0	 5	 1	 0	 69	 5	 1.1	 0.9;
	 125	 1	 10.28	 0.39	 0	 0	 5	 1	 0	 69	 5	 1.1	 0.9;
	 126	 1	 0	 0	 0	 0	 5	 1	 0	 69	 5	 1.1	 0.9;
	 127	 1	 0	 0	 0	 0	 5	 1	 0	 161	 5	 1.1	 0.9;
	 128	 1	 8.3	 1.27	 0	 0	 5	 1	 0	 69	 5	 1.1	 0.9;
	 129	 1	 0	 0	 0	 0	 5	 1	 0	 69	 5	 1.1	 0.9;
	 130	 1	 0.56	-3.1	 0	 0	 5	 1	 0	 69	 5	 1.1	 0.9;
	 131	 1	-0.13	-7.04	 0	-10	 5	 1	 0	 69	 5	 1.1	 0.9;
	 132	 1	 2.42	 0.34	 0	 0	 5	 1	 0	 69	 5	 1.1	 0.9;
	 133	 1	 0.91	 0.61	 0	 0	 5	 1	 0	 69	 5	 1.1	 0.9;
	 134	 1	 0	 0	 0	 0	 5	 1	 0	 69	 5	 1.1	 0.9;
	 135	 1	 6.41	 3.51	 0	 0	 5	 1	 0	 69	 5	 1.1	 0.9;
	 136	 1	 1.03	-5.77	 0	 0	 5	 1	 0	 69	 5	 1.1	 0.9;
	 137	 1	 1.7	-1.57	 0	 0	 5	 1	 0	 69	 5	 1.1	 0.9;
	 138	 1	 8.07	 4.93	 0	 0	 5	 1	 0	 69	 5	 1.1	 0.9;
	 139	 1	 3.73	 1	 0	 0	 5	 1	 0	 69	 5	 1.1	 0.9;
	 140	 1	 0	 0	 0	 0	 5	 1	 0	 69	 5	 1.1	 0.9;
	 141	 1	 0	 0	 0	 0	 5	 1	 0	 69	 5	 1.1	 0.9;
	 142	 1	 0	 0	 0	 0	 7	 1	 0	 345	 7	 1.1	 0.9;
	 143	 1	 26.58	 39.36	 0	 0	 7	 1	 0	 345	 7	 1.1	 0.9;
	 144	 1	 23.25	 25.31	 0	 0	 7	 1	 0	 345	 7	 1.1	 0.9;
	 145	 2	 0	 0	 0	 0	 7	 1	 0	 345	 7	 1.1	 0.9;
	 146	 2	 7	 18	 0	 0	 7	 1	 0	 345	 7	 1.1	 0.9;
	 147	 2	 8	 21	 0	 5.93	 7	 1	 0	 345	 7	 1.1	 0.9;
	 148	 1	 115.89	 19.59	 0	 0	 7	 1	 0	 345	 7	 1.1	 0.9;
	 149	 1	 1.16	-45.89	 0	 0	 7	 1	 0	 345	 7	 1.1	 0.9;
	 150	 1	 0	 0	 0	 0	 7	 1	 0	 138	 7	 1.1	 0.9;
	 151	 1	 8.23	 2.16	 0	 0	 7	 1	 0	 138	 7	 1.1	 0.9;
	 152	 1	 4.81	 1.73	 0	 0	 7	 1	 0	 138	 7	 1.1	 0.9;
	 153	 2	 23.61	 21.1	 0	 0	 7	 1	 0	 138	 7	 1.1	 0.9;
	 154	 2	 0	 0	 0	 0	 7	 1	 0	 138	 7	 1.1	 0.9;
	 155	 1	 5.46	 2.31	 0	 0	 7	 1	 0	 138	 7	 1.1	 0.9;
	 156	 1	 0	 0	 0	 0	 7	 1	 0	 138	 7	 1.1	 0.9;
	 157	 1	 9.62	 3.14	 0	 0	 7	 1	 0	 138	 7	 1.1	 0.9;
	 158	 2	 0	 0.1	 0	 0	 7	 1	 0	 138	 7	 1.1	 0.9;
	 159	 1	 0	 0	 0	 0	 7	 1	 0	 138	 7	 1.1	 0.9;
	 160	 1	 0	 0	 0	 0	 7	 1	 0	 138	 7	 1.1	 0.9;
	 161	 1	 0	 0	 0	 0	 7	 1	 0	 138	 7	 1.1	 0.9;
	 162	 1	 0	 0	 0	 0	 7	 1	 0	 138	 7	 1.1	 0.9;
	 163	 1	 0	 0	 0	 0	 7	 1	 0	 138	 7	 1.1	 0.9;
	 164	 1	 5.23	 1.81	 0	 0	 7	 1	 0	 138	 7	 1.1	 0.9;
	 165	 2	 1.92	 0.6	 0	 2.75	 7	 1	 0	 138	 7	 1.1	 0.9;
	 166	 2	 53	 25.02	 0	-0.23	 7	 1	 0	 138	 7	 1.1	 0.9;
	 167	 1	 6	 2.13	 0	 0	 7	 1	 0	 138	 7	 1.1	 0.9;
	 168	 1	 2.78	 0.9	 0	 0	 7	 1	 0	 138	 7	 1.1	 0.9;
	 169	 1	 8.12	 2.76	 0	 0	 7	 1	 0	 138	 7	 1.1	 0.9;
	 170	 1	 0.43	 1.25	 0	 0	 7	 1	 0	 138	 7	 1.1	 0.9;
	 171	 1	 0	 0	 0	-0.29	 7	 1	 0	 138	 7	 1.1	 0.9;
	 172	 1	 44.89	 16.97	 0	 0	 7	 1	 0	 138	 7	 1.1	 0.9;
	 173	 1	 6.53	 2.79	 0	 0	 7	 1	 0	 138	 7	 1.1	 0.9;
	 174	 1	 9.23	-8.41	 0	 0	 7	 1	 0	 138	 7	 1.1	 0.9;
	 175	 1	 4.81	 1.51	 0	 0	 7	 1	 0	 138	 7	 1.1	 0.9;
	 176	 2	 7	 14	 0	-0.3	 7	 1	 0	 138	 7	 1.1	 0.9;
	 177	 1	 9.09	 3.06	 0	 0	 7	 1	 0	 138	 7	 1.1	 0.9;
	 178	 1	 0	 0	 0	 0	 7	 1	 0	 138	 7	 1.1	 0.9;
	 179	 1	 6.38	 2.77	 0	 0	 7	 1	 0	 138	 7	 1.1	 0.9;
	 180	 1	 8.31	 3.68	 0	 0	 7	 1	 0	 138	 7	 1.1	 0.9;
	 181	 1	 0	 0	 0	 0	 7	 1	 0	 138	 7	 1.1	 0.9;
	 182	 1	 10.37	 3.46	 0	 0	 7	 1	 0	 138	 7	 1.1	 0.9;
	 183	 1	 2.99	 1.14	 0	 0	 7	 1	 0	 138	 7	 1.1	 0.9;
	 184	 1	 6.42	 2.28	 0	 0	 7	 1	 0	 138	 7	 1.1	 0.9;
	 185	 1	 0	 0	 0	 0	 7	 1	 0	 138	 7	 1.1	 0.9;
	 186	 1	 0	 0	 0	 0	 7	 1	 0	 138	 7	 1.1	 0.9;
	 187	 1	 3.64	 1.23	 0	 0	 7	 1	 0	 138	 7	 1.1	 0.9;
	 188	 1	 4.27	 1.55	 0	 0	 7	 1	 0	 138	 7	 1.1	 0.9;
	 189	 1	 0	 0	 0	 0	 7	 1	 0	 138	 7	 1.1	 0.9;
	 190	 1	 0	 0	 0	 0	 7	 1	 0	 138	 7	 1.1	 0.9;
	 191	 1	 4.6	 1.73	 0	 0	 7	 1	 0	 138	 7	 1.1	 0.9;
	 192	 1	 0	 0	 0	 0	 7	 1	 0	 138	 7	 1.1	 0.9;
	 193	 1	 4.6	 1.63	 0	 0	 7	 1	 0	 138	 7	 1.1	 0.9;
	 194	 1	 12.19	 3.96	 0	 0	 7	 1	 0	 138	 7	 1.1	 0.9;
	 195	 1	 18.16	 5.79	 0	 0	 7	 1	 0	 138	 7	 1.1	 0.9;
	 196	 1	 0	 0	 0	 0	 7	 1	 0	 138	 7	 1.1	 0.9;
	 197	 1	 3.85	 1.38	 0	 0	 7	 1	 0	 138	 7	 1.1	 0.9;
	 198	 1	 0	 0	 0	 0	 7	 1	 0	 138	 7	 1.1	 0.9;
	 199	 1	 0.53	 0.3	 0	 0	 7	 1	 0	 138	 7	 1.1	 0.9;
	 200	 1	 0	 0	 0	 0	 7	 1	 0	 138	 7	 1.1	 0.9;
...
];

mpc_regionR2.gen = [
%	bus         Pg          Qg          Qmax        Qmin        Vg          mBase       status      Pmax        Pmin        Pc1         Pc2         Qc1min      Qc1max      Qc2min      Qc2max      ramp_agc    ramp_10     ramp_30     ramp_q      apf         
	 2	 0	 0	 33.33	-33.33	 1	 100	 0	 35.29	 20.29	 0	 0	 0	 0	 0	 0	 0	 0	 0	 0	 35.288;
	 3	 227.105	 0	 202.93	-202.93	 1	 100	 1	 393.52	 60.69	 0	 0	 0	 0	 0	 0	 0	 0	 0	 0	 393.516;
	 5	 0	 0	 33.33	-33.33	 1	 100	 0	 101.89	 86.89	 0	 0	 0	 0	 0	 0	 0	 0	 0	 0	 101.886;
	 8	 22.1	 0	 12.48	-12.48	 1	 100	 1	 33.73	 10.47	 0	 0	 0	 0	 0	 0	 0	 0	 0	 0	 33.726;
	 12	 0	 0	 33.33	-33.33	 1	 100	 0	 25.24	 10.24	 0	 0	 0	 0	 0	 0	 0	 0	 0	 0	 25.238;
	 14	 0	 0	 2.33	-2.33	 1	 7	 0	 270	 5	 0	 0	 0	 0	 0	 0	 0	 0	 0	 0	 270;
	 22	 20.5	 10.5	 192	-171	 1	 41	 1	 41	 0	 0	 0	 0	 0	 0	 0	 0	 0	 0	 0	 41;
	 23	 12.5	-77.26	 23.48	-178	 1	 37.52	 1	 25	 0	 0	 0	 0	 0	 0	 0	 0	 0	 0	 0	 25;
	 23	 17.5	-68.78	 32.44	-170	 1	 35	 1	 35	 0	 0	 0	 0	 0	 0	 0	 0	 0	 0	 0	 35;
	 23	 0	 0	 8.33	-8.33	 1	 25	 0	 25	 0	 0	 0	 0	 0	 0	 0	 0	 0	 0	 0	 25;
	 27	 0	 0	 0.67	-0.67	 1	 2	 0	 266	 0	 0	 0	 0	 0	 0	 0	 0	 0	 0	 0	 266;
	 29	 0	 0	 33.33	-33.33	 1	 100	 0	 274	 0	 0	 0	 0	 0	 0	 0	 0	 0	 0	 0	 274;
	 36	 0	 0	 33.33	-33.33	 1	 100	 0	 27.97	 12.97	 0	 0	 0	 0	 0	 0	 0	 0	 0	 0	 27.972;
	 37	 0	 0	 33.33	-33.33	 1	 100	 0	 26.84	 11.84	 0	 0	 0	 0	 0	 0	 0	 0	 0	 0	 26.842;
	 41	 138	-1.5	 181	-184	 1	 0.36	 1	 276	 0	 0	 0	 0	 0	 0	 0	 0	 0	 0	 0	 276;
	 47	 9	 1	 185	-183	 1	 18	 1	 18	 0	 0	 0	 0	 0	 0	 0	 0	 0	 0	 0	 18;
	 49	 0	 0	 1.33	-1.33	 1	 4	 0	 277	 0	 0	 0	 0	 0	 0	 0	 0	 0	 0	 0	 277;
	 52	 170	 58.875	 138.75	-21	 1	 253.76	 1	 205	 135	 0	 0	 0	 0	 0	 0	 0	 0	 0	 0	 205;
	 53	 0	 0	 74	-74	 1	 222	 0	 222	 90	 0	 0	 0	 0	 0	 0	 0	 0	 0	 0	 222;
	 53	 0	 0	 68.33	-68.33	 1	 205	 0	 205	 135	 0	 0	 0	 0	 0	 0	 0	 0	 0	 0	 205;
	 53	 166	 44	 119	-31	 1	 232	 1	 232	 100	 0	 0	 0	 0	 0	 0	 0	 0	 0	 0	 232;
	 54	 170.215	 56.25	 127.5	-15	 1	 268.92	 1	 250.43	 90	 0	 0	 0	 0	 0	 0	 0	 0	 0	 0	 250.434;
	 55	 0	 0	 77.33	-77.33	 1	 232	 0	 232	 100	 0	 0	 0	 0	 0	 0	 0	 0	 0	 0	 232;
	 55	 170	 56.25	 127.5	-15	 1	 268.92	 1	 250	 90	 0	 0	 0	 0	 0	 0	 0	 0	 0	 0	 250;
	 56	 924.65	-9.035	 72.29	-90.36	 1	 100	 1	 1241.44	 607.86	 0	 0	 0	 0	 0	 0	 0	 0	 0	 0	 1241.4449;
	 66	 156	 49	 117	-19	 1	 222	 1	 222	 90	 0	 0	 0	 0	 0	 0	 0	 0	 0	 0	 222;
	 72	 149.54	 11	 193	-171	 1	 4	 1	 297	 2.08	 0	 0	 0	 0	 0	 0	 0	 0	 0	 0	 297;
	 72	 0	 0	 33.33	-33.33	 1	 100	 0	 28.32	 13.31	 0	 0	 0	 0	 0	 0	 0	 0	 0	 0	 28.315;
	 73	 0	 0	 33.33	-33.33	 1	 100	 0	 34.72	 19.72	 0	 0	 0	 0	 0	 0	 0	 0	 0	 0	 34.719;
	 77	 130.25	 13	 194	-168	 1	 6	 1	 258	 2.5	 0	 0	 0	 0	 0	 0	 0	 0	 0	 0	 258;
	 90	 127	-2	 179	-183	 1	 108.13	 1	 254	 0	 0	 0	 0	 0	 0	 0	 0	 0	 0	 0	 254;
	 93	 0	 0	 23.73	-23.73	 1	 71.2	 0	 45.15	 0	 0	 0	 0	 0	 0	 0	 0	 0	 0	 0	 45.15;
	 93	 0	 0	 23.73	-23.73	 1	 71.2	 0	 45.15	 0	 0	 0	 0	 0	 0	 0	 0	 0	 0	 0	 45.15;
	 97	 0	 0	 33.33	-33.33	 1	 100	 0	 298	 8.35	 0	 0	 0	 0	 0	 0	 0	 0	 0	 0	 298;
	 105	 33.485	-1.65	 13.21	-16.51	 1	 100	 1	 50.41	 16.56	 0	 0	 0	 0	 0	 0	 0	 0	 0	 0	 50.412;
	 108	 0	 0	 23.73	-23.73	 1	 71.2	 0	 45.15	 0	 0	 0	 0	 0	 0	 0	 0	 0	 0	 0	 45.15;
	 108	 0	 0	 23.73	-23.73	 1	 71.2	 0	 45.15	 0	 0	 0	 0	 0	 0	 0	 0	 0	 0	 0	 45.15;
	 109	 41.745	 94.725	 198	-8.55	 1	 100	 1	 64.19	 19.3	 0	 0	 0	 0	 0	 0	 0	 0	 0	 0	 64.187;
	 123	 0	 0	 23.73	-23.73	 1	 71.2	 0	 45.15	 0	 0	 0	 0	 0	 0	 0	 0	 0	 0	 0	 45.15;
	 123	 0	 0	 23.73	-23.73	 1	 71.2	 0	 45.15	 0	 0	 0	 0	 0	 0	 0	 0	 0	 0	 0	 45.15;
	 145	 50.48	-2.31	 18.48	-23.1	 1	 100	 1	 65.27	 35.69	 0	 0	 0	 0	 0	 0	 0	 0	 0	 0	 65.268;
	 146	 106.875	 36	 73	-1	 1	 163.45	 1	 143.75	 70	 0	 0	 0	 0	 0	 0	 0	 0	 0	 0	 143.75;
	 147	 106.875	 36	 73	-1	 1	 148.19	 1	 143.75	 70	 0	 0	 0	 0	 0	 0	 0	 0	 0	 0	 143.75;
	 147	 0	 0	 33.33	-33.33	 1	 100	 0	 28.1	 13.1	 0	 0	 0	 0	 0	 0	 0	 0	 0	 0	 28.104;
	 153	 84.75	 35	 110	-40	 1	 147.7	 1	 137.5	 32	 0	 0	 0	 0	 0	 0	 0	 0	 0	 0	 137.5;
	 154	 0	 0	 37.67	-37.67	 1	 113	 0	 113	 32	 0	 0	 0	 0	 0	 0	 0	 0	 0	 0	 113;
	 158	 0	 0	 45	-45	 1	 135	 0	 135	 35	 0	 0	 0	 0	 0	 0	 0	 0	 0	 0	 135;
	 165	 0	 0	 33.33	-33.33	 1	 100	 0	 259	 2.4	 0	 0	 0	 0	 0	 0	 0	 0	 0	 0	 259;
	 166	 0	 0	 16.67	-16.67	 1	 50	 0	 50	 10	 0	 0	 0	 0	 0	 0	 0	 0	 0	 0	 50;
	 176	 177.555	 35.875	 73	-1.25	 1	 144	 1	 254.99	 100.12	 0	 0	 0	 0	 0	 0	 0	 0	 0	 0	 254.988;
	 176	 0	 0	 36.67	-36.67	 1	 110	 0	 110	 79	 0	 0	 0	 0	 0	 0	 0	 0	 0	 0	 110;
	 211	 0	 0	 123.33	-123.33	 1	 370	 0	 370	 240	 0	 0	 0	 0	 0	 0	 0	 0	 0	 0	 370;
	 211	 0	 0	 123.33	-123.33	 1	 370	 0	 370	 240	 0	 0	 0	 0	 0	 0	 0	 0	 0	 0	 370;
	 211	 335.625	 83.125	 190	-23.75	 1	 449.45	 1	 431.25	 240	 0	 0	 0	 0	 0	 0	 0	 0	 0	 0	 431.25;
	 212	 351.25	 83.125	 190	-23.75	 1	 455.56	 1	 462.5	 240	 0	 0	 0	 0	 0	 0	 0	 0	 0	 0	 462.5;
	 212	 305	 84.08	 190	-21.84	 1	 397.31	 1	 370	 240	 0	 0	 0	 0	 0	 0	 0	 0	 0	 0	 370;
	 213	 722.385	 85.5	 190	-19	 1	 616.84	 1	 1090.99	 353.78	 0	 0	 0	 0	 0	 0	 0	 0	 0	 0	 1090.993;
	 213	 722.385	 85.5	 190	-19	 1	 616.84	 1	 1090.99	 353.78	 0	 0	 0	 0	 0	 0	 0	 0	 0	 0	 1090.993;
	 213	 722.385	 85.5	 190	-19	 1	 616.84	 1	 1090.99	 353.78	 0	 0	 0	 0	 0	 0	 0	 0	 0	 0	 1090.993;
	 214	 351.25	 104.205	 227.41	-19	 1	 451.84	 1	 462.5	 240	 0	 0	 0	 0	 0	 0	 0	 0	 0	 0	 462.5;
	 214	 332.5	 85.5	 190	-19	 1	 416.51	 1	 425	 240	 0	 0	 0	 0	 0	 0	 0	 0	 0	 0	 425;
	 214	 332.5	 85.5	 190	-19	 1	 416.51	 1	 425	 240	 0	 0	 0	 0	 0	 0	 0	 0	 0	 0	 425;
	 223	 120.425	 0	 133.54	-133.54	 1	 100	 1	 156.95	 83.9	 0	 0	 0	 0	 0	 0	 0	 0	 0	 0	 156.952;
	 226	 114.585	 45.625	 106.25	-15	 1	 166.81	 1	 137.5	 91.67	 0	 0	 0	 0	 0	 0	 0	 0	 0	 0	 137.5;
	 226	 0	 0	 40	-40	 1	 120	 0	 120	 100	 0	 0	 0	 0	 0	 0	 0	 0	 0	 0	 120;
	 236	 338.75	 109.25	 237.5	-19	 1	 477.9	 1	 437.5	 240	 0	 0	 0	 0	 0	 0	 0	 0	 0	 0	 437.5;
	 240	 15	 0	 179	-179	 1	 30	 1	 30	 0	 0	 0	 0	 0	 0	 0	 0	 0	 0	 0	 30;
	 246	 130.5	-2	 178	-182	 1	 0.43	 1	 261	 0	 0	 0	 0	 0	 0	 0	 0	 0	 0	 0	 261;
];

mpc_regionR2.branch = [
%	fbus        tbus        r           x           b           rateA       rateB       rateC       ratio       angle       status      angmin      angmax      
	 1	 2	 2e-05	 0.00021	 0	 876	 876	 876	 0	 0	 1	-30	 30;
	 1	 3	 0.00033	 0.02711	 0	 500	 500	 500	 1.08613	 0	 1	-30	 30;
	 16	 1	 0.00163	 0.06671	 0	 160	 160	 160	 1.06463	 0	 1	-30	 30;
	 18	 2	 0.00163	 0.06671	 0	 160	 160	 160	 1.05908	 0	 1	-30	 30;
	 2	 59	 0.0001	 0.01	 0	 229.39	 275.26	 344.08	 0	 0	 1	-30	 30;
	 4	 3	 0.00032	 0.0464	 0	 330	 330	 330	 0.9999	 0	 1	-30	 30;
	 3	 57	 0.0001	 0.01	 0	 379.94	 455.93	 569.91	 0	 0	 1	-30	 30;
	 17	 4	 0.00032	-0.00435	 0	 330	 330	 330	 1.06892	 0	 1	-30	 30;
	 19	 4	-0.00022	 0.1019	 0	 260	 312	 390	 0.96037	 0	 1	-30	 30;
	 36	 5	-0.00013	-0.00407	 0	 688.8	 826.56	 1033.2	 1.05737	 0	 1	-30	 30;
	 5	 210	 0.0001	 0.01	 0	 689.73	 827.68	 1034.6	 0	 0	 1	-30	 30;
	 6	 7	 0.02165	 0.0724	 0.00706	 90	 90	 90	 0	 0	 1	-30	 30;
	 6	 9	 0.07884	 0.10231	 0.01021	 49	 49	 49	 0	 0	 1	-30	 30;
	 7	 8	 8e-05	 0.00083	 0	 438	 438	 438	 0	 0	 1	-30	 30;
	 8	 231	 0.0001	 0.01	 0	 83.7	 98.6	 125.55	 0	 0	 1	-30	 30;
	 9	 10	 0.01322	 0.01777	 0.00191	 62	 62	 62	 0	 0	 1	-30	 30;
	 9	 35	 0.03636	 0.12066	 0.01181	 114	 114	 114	 0	 0	 1	-30	 30;
	 9	 42	 0.02331	 0.07893	 0.00745	 69	 69	 69	 0	 0	 1	-30	 30;
	 10	 21	 0.02231	 0.07231	 0.01493	 75	 75	 75	 0	 0	 1	-30	 30;
	 11	 18	 0.02868	 0.09256	 0.00951	 123	 123	 123	 0	 0	 1	-30	 30;
	 11	 165	 0.0001	 0.01	 0	 83.7	 98.6	 125.55	 0	 0	 1	-30	 30;
	 12	 41	 0.02975	 0.09587	 0.01007	 137	 137	 137	 0	 0	 1	-30	 30;
	 12	 243	 0.0001	 0.01	 0	 83.7	 98.6	 125.55	 0	 0	 1	-30	 30;
	 13	 36	 0.01039	 0.05083	 0.00494	 133	 133	 133	 0	 0	 1	-30	 30;
	 13	 38	 0.02446	 0.04347	 0.00404	 69	 69	 69	 0	 0	 1	-30	 30;
	 14	 15	 0.00149	 0.00496	 0.00048	 137	 137	 137	 0	 0	 1	-30	 30;
	 14	 46	 0.00688	 0.02158	 0.0024	 137	 137	 137	 0	 0	 1	-30	 30;
	 15	 44	 0.00273	 0.00826	 0.00085	 120	 120	 120	 0	 0	 1	-30	 30;
	 16	 17	 8e-05	 0.00083	 0	 438	 438	 438	 0	 0	 1	-30	 30;
	 16	 21	 0.0314	 0.09884	 0.01074	 123	 123	 123	 0	 0	 1	-30	 30;
	 16	 24	 0.04	 0.12959	 0.01329	 151.36	 196.77	 196.77	 0	 0	 1	-30	 30;
	 16	 43	 0.00736	 0.0238	 0.00251	 114	 114	 114	 0	 0	 1	-30	 30;
	 17	 18	 8e-05	 0.00083	 0	 438	 438	 438	 0	 0	 1	-30	 30;
	 17	 25	 0.04025	 0.13025	 0.01336	 114.35	 148.65	 148.65	 0	 0	 1	-30	 30;
	 17	 27	 0.02124	 0.0686	 0.00704	 123	 123	 123	 0	 0	 1	-30	 30;
	 17	 44	 0.0095	 0.02455	 0.00256	 114	 114	 114	 0	 0	 1	-30	 30;
	 18	 30	 0.02781	 0.07968	 0.00807	 123	 123	 123	 0	 0	 1	-30	 30;
	 18	 46	 0.00883	 0.02792	 0.00305	 137	 137	 137	 0	 0	 1	-30	 30;
	 20	 28	 0.00983	 0.01727	 0.00163	 69	 69	 69	 0	 0	 1	-30	 30;
	 20	 35	 0.04669	 0.08182	 0.00774	 90	 90	 90	 0	 0	 1	-30	 30;
	 20	 39	 0.00992	 0.03322	 0.00419	 107	 107	 107	 0	 0	 1	-30	 30;
	 20	 45	 0.02455	 0.07992	 0.00823	 123	 123	 123	 0	 0	 1	-30	 30;
	 22	 45	 0.01338	 0.04326	 0.00444	 140	 140	 140	 0	 0	 1	-30	 30;
	 23	 24	 8e-05	 0.00083	 0	 438	 438	 438	 0	 0	 1	-30	 30;
	 23	 25	 8e-05	 0.00083	 0	 438	 438	 438	 0	 0	 1	-30	 30;
	 23	 26	 0.00405	 0.01331	 0.00138	 95	 95	 95	 0	 0	 1	-30	 30;
	 23	 47	 0.03017	 0.09764	 0.01004	 123	 123	 123	 0	 0	 1	-30	 30;
	 26	 32	 0.02074	 0.06628	 0.00699	 126	 126	 126	 0	 0	 1	-30	 30;
	 27	 39	 0.03364	 0.10744	 0.01016	 107	 107	 107	 0	 0	 1	-30	 30;
	 28	 38	 0.05322	 0.09347	 0.00882	 69	 69	 69	 0	 0	 1	-30	 30;
	 29	 36	 0.03603	 0.12893	 0.01251	 90.54	 108.65	 135.81	 0	 0	 1	-30	 30;
	 29	 105	 0.0001	 0.01	 0	 83.7	 98.6	 125.55	 0	 0	 1	-30	 30;
	 31	 41	 0.00512	 0.01653	 0.00174	 137	 137	 137	 0	 0	 1	-30	 30;
	 31	 47	 0.01103	 0.03572	 0.00367	 123	 123	 123	 0	 0	 1	-30	 30;
	 32	 45	 0.02835	 0.09223	 0.00951	 137	 137	 137	 0	 0	 1	-30	 30;
	 33	 43	 0.00826	 0.01653	 0.00194	 114	 114	 114	 0	 0	 1	-30	 30;
	 33	 44	 0.00421	 0.01074	 0.00121	 114	 114	 114	 0	 0	 1	-30	 30;
	 34	 36	 0.03041	 0.0986	 0.01013	 114	 114	 114	 0	 0	 1	-30	 30;
	 36	 37	 0.03587	 0.1157	 0.0122	 140	 140	 140	 0	 0	 1	-30	 30;
	 36	 235	 0.0001	 0.01	 0	 627.77	 753.32	 941.65	 0	 0	 1	-30	 30;
	 37	 81	 0.0001	 0.01	 0	 83.7	 98.6	 125.55	 0	 0	 1	-30	 30;
	 40	 42	 0.01976	 0.0514	 0.00515	 69	 69	 69	 0	 0	 1	-30	 30;
	 44	 48	 0.02017	 0.05223	 0.00545	 120	 120	 120	 0	 0	 1	-30	 30;
	 44	 49	 0.03562	 0.10942	 0.01146	 69	 69	 69	 0	 0	 1	-30	 30;
	 49	 109	 0.0001	 0.01	 0	 83.7	 98.6	 125.55	 0	 0	 1	-30	 30;
	 50	 51	 2e-05	 0.00021	 0	 876	 876	 876	 0	 0	 1	-30	 30;
	 50	 53	 0.00568	 0.04012	 0.07033	 317	 317	 317	 0	 0	 1	-30	 30;
	 50	 58	 0.00105	 0.00733	 0.01258	 231	 231	 231	 0	 0	 1	-30	 30;
	 52	 53	 2e-05	 0.00021	 0	 876	 876	 876	 0	 0	 1	-30	 30;
	 52	 90	 0.0018	 0.01616	 0.0484	 754.02	 980.22	 980.22	 0	 0	 1	-30	 30;
	 52	 147	 0.0001	 0.01	 0	 487.52	 585.02	 731.27	 0	 0	 1	-30	 30;
	 53	 54	 0.00064	 0.0305	 0	 709.38	 922.2	 922.2	 1.07408	 0	 1	-30	 30;
	 74	 53	 0.00163	 0.06136	 0	 160	 160	 160	 1.0215	 0	 1	-30	 30;
	 53	 90	 0.0018	 0.01616	 0.0484	 734.76	 955.19	 955.19	 0	 0	 1	-30	 30;
	 54	 55	 1e-05	 6e-05	 0	 1593	 1593	 1593	 0	 0	 1	-30	 30;
	 54	 63	 0.00296	 0.03484	 0.9296	 838	 838	 838	 0	 0	 1	-30	 30;
	 55	 60	 0.00373	 0.04344	 1.172	 831	 831	 831	 0	 0	 1	-30	 30;
	 57	 56	 0.00032	 0.04392	 0	 562.44	 731.18	 731.18	 0.9999	 0	 1	-30	 30;
	 56	 60	 0.00228	 0.02296	 0.8129	 1386	 1386	 1386	 0	 0	 1	-30	 30;
	 56	 215	 0.0001	 0.01	 0	 494.5	 593.4	 741.75	 0	 0	 1	-30	 30;
	 78	 57	-0.00023	 0.09951	 0	 260	 312	 390	 0.96037	 0	 1	-30	 30;
	 59	 60	 0.00035	 0.02375	 0	 500	 500	 500	 1.08671	 0	 1	-30	 30;
	 79	 60	 0.00101	 0.06188	 0	 330	 330	 330	 1.1306	 0	 1	-30	 30;
	 80	 60	 0.00153	 0.06206	 0	 250	 250	 250	 1.10126	 0	 1	-30	 30;
	 60	 89	 0.00019	 0.00196	 0.06877	 831	 831	 831	 0	 0	 1	-30	 30;
	 61	 62	 0.00051	 0.0275	 0	 400	 400	 400	 1.07702	 0	 1	-30	 30;
	 62	 63	 1e-05	 6e-05	 0	 1593	 1593	 1593	 0	 0	 1	-30	 30;
	 62	 64	 0.00131	 0.01547	 0.41152	 838	 838	 838	 0	 0	 1	-30	 30;
	 64	 223	 0.0001	 0.01	 0	 300.15	 360.18	 450.22	 0	 0	 1	-30	 30;
	 65	 77	 0.01452	 0.04917	 0.00487	 120	 120	 120	 0	 0	 1	-30	 30;
	 65	 80	 0.02276	 0.0771	 0.00763	 153.09	 199.01	 199.01	 0	 0	 1	-30	 30;
	 66	 67	 8e-05	 0.00083	 0	 438	 438	 438	 0	 0	 1	-30	 30;
	 66	 74	 0.00064	 0.00483	 0.00047	 161.57	 193.89	 242.36	 0	 0	 1	-30	 30;
	 68	 80	 0.00731	 0.01279	 0.00122	 78	 78	 78	 0	 0	 1	-30	 30;
	 69	 83	 0.02035	 0.03558	 0.0034	 78	 78	 78	 0	 0	 1	-30	 30;
	 70	 84	 0.00202	 0.00325	 0.02903	 80	 80	 80	 0	 0	 1	-30	 30;
	 71	 75	 0.00405	 0.01331	 0.00138	 123	 123	 123	 0	 0	 1	-30	 30;
	 71	 80	 0.00574	 0.01944	 0.00192	 160.2	 208.26	 208.26	 0	 0	 1	-30	 30;
	 72	 87	 0.04645	 0.08174	 0.00801	 93.92	 112.71	 140.88	 0	 0	 1	-30	 30;
	 72	 247	 0.0001	 0.01	 0	 83.7	 98.6	 125.55	 0	 0	 1	-30	 30;
	 73	 79	 0.01612	 0.05405	 0.00532	 170.4	 221.52	 221.52	 0	 0	 1	-30	 30;
	 73	 86	 0.00615	 0.02083	 0.00206	 209.66	 272.55	 272.55	 0	 0	 1	-30	 30;
	 73	 239	 0.0001	 0.01	 0	 119.22	 143.06	 178.83	 0	 0	 1	-30	 30;
	 76	 79	 0.01344	 0.02383	 0.00227	 116.43	 151.36	 151.36	 0	 0	 1	-30	 30;
	 76	 83	 0.00698	 0.01279	 0.00098	 78	 78	 78	 0	 0	 1	-30	 30;
	 79	 85	 0.00959	 0.02474	 0.00251	 160.94	 209.22	 209.22	 0	 0	 1	-30	 30;
	 79	 87	 0.02397	 0.04223	 0.00414	 78	 78	 78	 0	 0	 1	-30	 30;
	 80	 81	 0.08066	 0.14207	 0.01348	 180.21	 234.28	 234.28	 0	 0	 1	-30	 30;
	 80	 84	 0.00959	 0.02474	 0.00251	 102	 102	 102	 0	 0	 1	-30	 30;
	 81	 82	 8e-05	 0.00083	 0	 438	 438	 438	 0	 0	 1	-30	 30;
	 85	 88	 0.00413	 0.01405	 0.00138	 173.24	 207.88	 259.85	 0	 0	 1	-30	 30;
	 91	 111	 0.06171	 0.10799	 0.0018	 260	 312	 390	 0	 0	 1	-30	 30;
	 91	 137	 0.01711	 0.02994	 0.0005	 260	 312	 390	 0	 0	 1	-30	 30;
	 92	 118	 0.0355	 0.06201	 0.00104	 260	 312	 390	 0	 0	 1	-30	 30;
	 92	 132	 0.01907	 0.03338	 0.00054	 260	 312	 390	 0	 0	 1	-30	 30;
	 121	 93	 0.1522	 0.1534	 0	 260	 312	 390	 1	 0	 1	-30	 30;
	 94	 96	 0.0287	 0.05023	 0.00082	 260	 312	 390	 0	 0	 1	-30	 30;
	 95	 110	 0.01814	 0.03174	 0.00054	 260	 312	 390	 0	 0	 1	-30	 30;
	 96	 102	 0.0275	 0.0482	 0.0008	 260	 312	 390	 0	 0	 1	-30	 30;
	 96	 118	 0.0662	 0.11584	 0.00192	 260	 312	 390	 0	 0	 1	-30	 30;
	 103	 97	 0	 0.03225	 0	 260	 312	 390	 1.0224	 0	 1	-30	 30;
	 97	 172	 0.0001	 0.01	 0	 83.7	 98.6	 125.55	 0	 0	 1	-30	 30;
	 98	 104	 0.1184	 0.2053	 0	 260	 312	 390	 0	 0	 1	-30	 30;
	 98	 133	 0.0421	 0.0755	 0	 260	 312	 390	 0	 0	 1	-30	 30;
	 99	 101	 0.09799	 0.17147	 0.00284	 260	 312	 390	 0	 0	 1	-30	 30;
	 100	 107	 0.00458	 0.00802	 0.00014	 260	 312	 390	 0	 0	 1	-30	 30;
	 100	 112	 0.0869	 0.1522	 0.0025	 260	 312	 390	 0	 0	 1	-30	 30;
	 100	 130	 0.08499	 0.14873	 0.00246	 260	 312	 390	 0	 0	 1	-30	 30;
	 101	 106	 0.05256	 0.1335	 0.00256	 260	 312	 390	 0	 0	 1	-30	 30;
	 101	 117	 0.10089	 0.17655	 0.00292	 260	 312	 390	 0	 0	 1	-30	 30;
	 102	 130	 0.0275	 0.0482	 0.0008	 260	 312	 390	 0	 0	 1	-30	 30;
	 103	 127	 0.02901	 0.18849	 0.09302	 260	 312	 390	 0	 0	 1	-30	 30;
	 103	 140	 0	 0.14449	 0	 260	 312	 390	 1.02	 0	 1	-30	 30;
	 103	 140	 0	 0.14449	 0	 260	 312	 390	 1.02	 0	 1	-30	 30;
	 104	 113	 0.06826	 0.11944	 0.00198	 260	 312	 390	 0	 0	 1	-30	 30;
	 105	 126	 0	 0.10324	 0	 260	 312	 390	 0.9825	 0	 1	-30	 30;
	 109	 106	 0	 0.13708	 0	 260	 312	 390	 0.9795	 0	 1	-30	 30;
	 106	 125	 0.01752	 0.04449	 0.00086	 260	 312	 390	 0	 0	 1	-30	 30;
	 107	 137	 0.07022	 0.12288	 0.00204	 260	 312	 390	 0	 0	 1	-30	 30;
	 121	 108	 0.1522	 0.1534	 0	 260	 312	 390	 1	 0	 1	-30	 30;
	 110	 113	 0.04273	 0.07477	 0.00124	 260	 312	 390	 0	 0	 1	-30	 30;
	 112	 134	 0.04834	 0.08459	 0.0014	 260	 312	 390	 0	 0	 1	-30	 30;
	 113	 119	 0.02122	 0.03714	 0.00062	 260	 312	 390	 0	 0	 1	-30	 30;
	 114	 125	 0.08574	 0.15004	 0.0025	 260	 312	 390	 0	 0	 1	-30	 30;
	 115	 133	 0.0612	 0.1072	 0.00178	 260	 312	 390	 0	 0	 1	-30	 30;
	 115	 134	 0.0719	 0.1258	 0.00208	 260	 312	 390	 0	 0	 1	-30	 30;
	 116	 126	 0.08415	 0.14726	 0.00244	 260	 312	 390	 0	 0	 1	-30	 30;
	 116	 131	 0.0234	 0.0593	 0.00112	 260	 312	 390	 0	 0	 1	-30	 30;
	 117	 124	 0.0785	 0.1374	 0.0028	 260	 312	 390	 0	 0	 1	-30	 30;
	 117	 126	 0.14137	 0.24739	 0.0041	 260	 312	 390	 0	 0	 1	-30	 30;
	 120	 141	 0.00944	 0.01653	 0.00026	 260	 312	 390	 0	 0	 1	-30	 30;
	 121	 123	 0.1522	 0.1534	 0	 260	 312	 390	 1	 0	 1	-30	 30;
	 121	 127	 0.00019	 0.00118	 0.00061	 260	 312	 390	 0	 0	 1	-30	 30;
	 122	 129	 0.09182	 0.16067	 0.00266	 260	 312	 390	 0	 0	 1	-30	 30;
	 124	 128	 0.07948	 0.13908	 0.0023	 260	 312	 390	 0	 0	 1	-30	 30;
	 125	 128	 0.12286	 0.215	 0.00356	 260	 312	 390	 0	 0	 1	-30	 30;
	 126	 130	 0.052	 0.1837	 0.00368	 260	 312	 390	 0	 0	 1	-30	 30;
	 126	 136	 0.01661	 0.03417	 0.00064	 260	 312	 390	 0	 0	 1	-30	 30;
	 128	 140	 0.1004	 0.20654	 0.00378	 260	 312	 390	 0	 0	 1	-30	 30;
	 129	 138	 0.0187	 0.03272	 0.00054	 260	 312	 390	 0	 0	 1	-30	 30;
	 129	 141	 0.07536	 0.13188	 0.00218	 260	 312	 390	 0	 0	 1	-30	 30;
	 134	 135	 0.06558	 0.16654	 0.00318	 260	 312	 390	 0	 0	 1	-30	 30;
	 134	 139	 0.02749	 0.0481	 0.0008	 260	 312	 390	 0	 0	 1	-30	 30;
	 135	 140	 0.02155	 0.05472	 0.00104	 260	 312	 390	 0	 0	 1	-30	 30;
	 136	 140	 0.10084	 0.20745	 0.0038	 260	 312	 390	 0	 0	 1	-30	 30;
...